@<TRIPOS>MOLECULE
DOP
   22    22     1     0     0
SMALL
bcc


@<TRIPOS>ATOM
      1 N1           2.6000    -1.1070     0.5320 n8         1 DOP      -0.918800
      2 C1           2.6040     0.0310    -0.3830 c3         1 DOP       0.163800
      3 C2           1.4290    -0.0510    -1.3630 c3         1 DOP      -0.039100
      4 C3           0.1060     0.1420    -0.6660 ca         1 DOP      -0.080300
      5 C4          -0.3430     1.4340    -0.3510 ca         1 DOP      -0.125000
      6 C5          -1.5570     1.6150     0.3180 ca         1 DOP      -0.184000
      7 C6          -2.3330     0.5070     0.6840 ca         1 DOP       0.099100
      8 O1          -3.5440     0.6830     1.3510 oh         1 DOP      -0.474100
      9 C7          -1.8880    -0.7860     0.3810 ca         1 DOP       0.102100
     10 O2          -2.6590    -1.8860     0.7510 oh         1 DOP      -0.475100
     11 C8          -0.6700    -0.9670    -0.2900 ca         1 DOP      -0.186000
     12 H1           1.8520    -0.9520     1.2470 hn         1 DOP       0.350800
     13 H2           3.5060    -1.0990     1.0530 hn         1 DOP       0.350800
     14 H3           2.5690     0.9860     0.1880 h1         1 DOP       0.027200
     15 H4           3.5490     0.0200    -0.9700 h1         1 DOP       0.027200
     16 H5           1.4530    -1.0290    -1.8910 hc         1 DOP       0.057200
     17 H6           1.5510     0.7370    -2.1380 hc         1 DOP       0.057200
     18 H7           0.2480     2.3000    -0.6210 ha         1 DOP       0.135000
     19 H8          -1.8930     2.6170     0.5520 ha         1 DOP       0.136000
     20 H9          -3.8910     1.6060     1.5840 ho         1 DOP       0.415000
     21 H10         -2.3640    -2.8340     0.5470 ho         1 DOP       0.416000
     22 H11         -0.3270    -1.9690    -0.5150 ha         1 DOP       0.145000
@<TRIPOS>BOND
     1     1     2 1   
     2     2     3 1   
     3     3     4 1   
     4     4     5 ar  
     5     5     6 ar  
     6     6     7 ar  
     7     7     8 1   
     8     7     9 ar  
     9     9    10 1   
    10     9    11 ar  
    11    11     4 ar  
    12     1    12 1   
    13     1    13 1   
    14     2    14 1   
    15     2    15 1   
    16     3    16 1   
    17     3    17 1   
    18     5    18 1   
    19     6    19 1   
    20     8    20 1   
    21    10    21 1   
    22    11    22 1   
@<TRIPOS>SUBSTRUCTURE
     1 DOP         1 TEMP              0 ****  ****    0 ROOT
