@<TRIPOS>MOLECULE
POL
  449   498     1     0     0
SMALL
gas


@<TRIPOS>ATOM
      1 N1           5.9980    -5.6070    -6.4090 nv         1 POL      -0.358295
      2 C1           4.7270    -5.8290    -5.7930 ca         1 POL       0.023437
      3 C2           3.8880    -6.8520    -6.2510 ca         1 POL      -0.038738
      4 C3           2.6560    -7.0820    -5.6330 ca         1 POL      -0.029401
      5 C4           2.2360    -6.2840    -4.5630 ca         1 POL       0.082106
      6 O1           1.0030    -6.5670    -3.9550 os         1 POL      -0.310465
      7 C5           0.2340    -5.6600    -3.2110 ca         1 POL       0.082107
      8 C6           0.1680    -4.3010    -3.5500 ca         1 POL      -0.029358
      9 C7          -0.5390    -3.4070    -2.7490 ca         1 POL      -0.037388
     10 C8          -1.2040    -3.8570    -1.5970 ca         1 POL       0.044175
     11 N2          -1.8330    -2.9180    -0.7110 n          1 POL      -0.201590
     12 C9          -1.2120    -5.2330    -1.3080 ca         1 POL      -0.037388
     13 C10         -0.5010    -6.1260    -2.1140 ca         1 POL      -0.029358
     14 C11          3.0850    -5.2630    -4.0980 ca         1 POL      -0.029401
     15 C12          4.3160    -5.0340    -4.7160 ca         1 POL      -0.038738
     16 H1           6.6430    -4.8600    -6.0600 hn         1 POL       0.142659
     17 H2           6.2980    -6.1810    -7.2290 hn         1 POL       0.142659
     18 H3           4.1950    -7.4760    -7.0790 ha         1 POL       0.064338
     19 H4           2.0270    -7.8890    -5.9870 ha         1 POL       0.065134
     20 H5           0.6760    -3.9340    -4.4270 ha         1 POL       0.065134
     21 H6          -0.5650    -2.3610    -3.0290 ha         1 POL       0.064381
     22 H7          -1.7250    -5.6110    -0.4320 ha         1 POL       0.064381
     23 H8          -0.4840    -7.1770    -1.8610 ha         1 POL       0.065134
     24 H9           2.8120    -4.6580    -3.2440 ha         1 POL       0.065134
     25 H10          4.9560    -4.2440    -4.3480 ha         1 POL       0.064338
     26 O2          -0.3230    -1.0740    -0.8130 o          1 POL      -0.270821
     27 C13         -1.4120    -1.5770    -0.4260 c          1 POL       0.257628
     28 C14         -3.0620    -3.0620     0.0110 c          1 POL       0.257533
     29 O3          -3.7400    -4.1200     0.0590 o          1 POL      -0.270822
     30 C15         -3.3990    -1.8190     0.6890 ca         1 POL       0.050832
     31 C16         -4.5130    -1.4660     1.4470 ca         1 POL      -0.046212
     32 C17         -4.5720    -0.1590     1.9660 ca         1 POL      -0.030409
     33 C18         -3.5140     0.7520     1.7330 ca         1 POL       0.082810
     34 O4          -3.5700     2.0430     2.2600 os         1 POL      -0.310416
     35 C19         -2.8290     2.4580     3.3750 ca         1 POL       0.082810
     36 C20         -2.6150     3.8410     3.5630 ca         1 POL      -0.030409
     37 C21         -1.8860     4.3150     4.6680 ca         1 POL      -0.046212
     38 C22         -1.3880     3.3810     5.5720 ca         1 POL       0.050832
     39 C23         -0.5780     3.5620     6.7680 c          1 POL       0.257535
     40 O5          -0.2100     4.6700     7.2400 o          1 POL      -0.270822
     41 C24         -0.9250     1.3410     6.4990 c          1 POL       0.257629
     42 O6          -0.8530     0.0910     6.6380 o          1 POL      -0.270821
     43 C25         -1.6000     2.0310     5.4060 ca         1 POL       0.053259
     44 C26         -2.3120     1.5330     4.3140 ca         1 POL      -0.017827
     45 C27         -2.4100     0.3690     0.9510 ca         1 POL      -0.017827
     46 C28         -2.3880    -0.9190     0.4310 ca         1 POL       0.053259
     47 H11         -5.3110    -2.1730     1.6290 ha         1 POL       0.063224
     48 H12         -5.4270     0.1410     2.5530 ha         1 POL       0.065090
     49 H13         -2.9820     4.5470     2.8340 ha         1 POL       0.065090
     50 H14         -1.7060     5.3750     4.8030 ha         1 POL       0.063224
     51 H15         -2.4610     0.4680     4.2000 ha         1 POL       0.065925
     52 H16         -1.6070     1.0580     0.7400 ha         1 POL       0.065925
     53 N3          -0.2880     2.2920     7.3600 n          1 POL      -0.201497
     54 C29          0.5720     2.0220     8.4800 ca         1 POL       0.046667
     55 C30          1.7520     2.7550     8.6520 ca         1 POL      -0.017728
     56 C31          2.6190     2.5040     9.7310 ca         1 POL       0.046667
     57 N4           3.8890     3.1930     9.8410 n          1 POL      -0.201497
     58 C32          2.2490     1.5240    10.6690 ca         1 POL      -0.027289
     59 C33          1.0850     0.7540    10.4940 ca         1 POL       0.040792
     60 C34          0.7370    -0.3310    11.4380 c          1 POL       0.243025
     61 O7          -0.4770    -0.6310    11.6130 o          1 POL      -0.271952
     62 N5           1.7580    -1.0750    12.1230 ns         1 POL      -0.311030
     63 C35          1.4500    -2.2660    12.9110 c3         1 POL       0.015325
     64 C36          1.2450    -3.4660    11.9850 c3         1 POL      -0.012104
     65 C37          0.8250    -4.6830    12.7630 ca         1 POL      -0.043685
     66 C38          1.7900    -5.5290    13.3310 ca         1 POL      -0.056199
     67 C39          1.3970    -6.6540    14.0620 ca         1 POL      -0.029102
     68 C40          0.0410    -6.9450    14.2390 ca         1 POL       0.101217
     69 O8          -0.3190    -8.0820    14.9620 oh         1 POL      -0.358222
     70 C41         -0.9320    -6.0930    13.6890 ca         1 POL       0.101475
     71 O9          -2.2880    -6.3690    13.8720 oh         1 POL      -0.358214
     72 C42         -0.5370    -4.9620    12.9570 ca         1 POL      -0.026100
     73 C43          0.2480     1.0150     9.3980 ca         1 POL      -0.027289
     74 H17          2.0070     3.4840     7.9040 ha         1 POL       0.066308
     75 H18          2.8540     1.3730    11.5490 ha         1 POL       0.065120
     76 H19          2.7630    -0.8590    11.9470 hn         1 POL       0.149692
     77 H20          0.5430    -2.0900    13.5270 h1         1 POL       0.047031
     78 H21          2.2930    -2.4720    13.6020 h1         1 POL       0.047031
     79 H22          0.4710    -3.2230    11.2230 hc         1 POL       0.033214
     80 H23          2.1890    -3.6740    11.4360 hc         1 POL       0.033214
     81 H24          2.8460    -5.3200    13.2090 ha         1 POL       0.062665
     82 H25          2.1490    -7.3050    14.4870 ha         1 POL       0.065146
     83 H26         -1.2880    -8.3410    15.1100 ho         1 POL       0.218378
     84 H27         -3.0060    -5.7670    13.4850 ho         1 POL       0.218378
     85 H28         -1.2880    -4.3090    12.5300 ha         1 POL       0.065431
     86 H29         -0.6590     0.4390     9.2590 ha         1 POL       0.065120
     87 O10          3.5850     5.1730     8.5390 o          1 POL      -0.270821
     88 C44          4.3380     4.2790     9.0110 c          1 POL       0.257629
     89 C45          5.1220     2.6110    10.3050 c          1 POL       0.257535
     90 O11          5.2020     1.5910    11.0380 o          1 POL      -0.270822
     91 C46          6.2670     3.2970     9.7220 ca         1 POL       0.050832
     92 C47          7.6280     3.0130     9.8040 ca         1 POL      -0.046212
     93 C48          8.5010     3.7030     8.9440 ca         1 POL      -0.030409
     94 C49          7.9900     4.6150     7.9880 ca         1 POL       0.082810
     95 O12          8.8160     5.1760     7.0070 os         1 POL      -0.310416
     96 C50          9.3380     4.4550     5.9180 ca         1 POL       0.082810
     97 C51          9.4230     3.0350     5.9170 ca         1 POL      -0.030409
     98 C52          9.8590     2.3400     4.7800 ca         1 POL      -0.046212
     99 C53         10.2100     3.0790     3.6560 ca         1 POL       0.050832
    100 C54         10.4910     2.6400     2.2990 c          1 POL       0.257533
    101 O13         10.5890     1.4380     1.9330 o          1 POL      -0.270822
    102 C55         10.4130     4.8930     2.2850 c          1 POL       0.257628
    103 O14         10.3830     6.0900     1.8940 o          1 POL      -0.270821
    104 C56         10.1610     4.4530     3.6520 ca         1 POL       0.053259
    105 C57          9.7420     5.1710     4.7720 ca         1 POL      -0.017827
    106 C58          6.6220     4.9500     7.9990 ca         1 POL      -0.017827
    107 C59          5.7880     4.2760     8.8900 ca         1 POL       0.053259
    108 H30          7.9980     2.2670    10.4910 ha         1 POL       0.063224
    109 H31          9.5590     3.4850     8.9730 ha         1 POL       0.065090
    110 H32          9.1490     2.4550     6.7800 ha         1 POL       0.065090
    111 H33          9.8810     1.2580     4.7680 ha         1 POL       0.063224
    112 H34          9.6590     6.2500     4.7330 ha         1 POL       0.065925
    113 H35          6.2160     5.6540     7.2820 ha         1 POL       0.065925
    114 N6          10.6060     3.7650     1.4180 n          1 POL      -0.201590
    115 C60         10.2810     3.7700     0.0170 ca         1 POL       0.044175
    116 C61         10.8560     4.7230    -0.8380 ca         1 POL      -0.037388
    117 C62         10.4540     4.8090    -2.1760 ca         1 POL      -0.029358
    118 C63          9.4660     3.9530    -2.6750 ca         1 POL       0.082107
    119 O15          9.0370     4.1110    -4.0030 os         1 POL      -0.310465
    120 C64          7.7360     3.8550    -4.4710 ca         1 POL       0.082107
    121 C65          6.6090     3.9810    -3.6400 ca         1 POL      -0.029358
    122 C66          5.3320     3.6990    -4.1340 ca         1 POL      -0.037388
    123 C67          5.1540     3.3110    -5.4730 ca         1 POL       0.044175
    124 N7           3.8420     2.9890    -5.9760 n          1 POL      -0.201590
    125 C68          6.2770     3.2240    -6.3090 ca         1 POL      -0.037388
    126 C69          7.5550     3.5060    -5.8140 ca         1 POL      -0.029358
    127 C70          8.9430     2.9500    -1.8430 ca         1 POL      -0.029358
    128 C71          9.3310     2.8730    -0.5040 ca         1 POL      -0.037388
    129 H36         11.6020     5.4110    -0.4600 ha         1 POL       0.064381
    130 H37         10.8830     5.5670    -2.8190 ha         1 POL       0.065134
    131 H38          6.7150     4.3050    -2.6130 ha         1 POL       0.065134
    132 H39          4.4910     3.7570    -3.4570 ha         1 POL       0.064381
    133 H40          6.1620     2.9540    -7.3500 ha         1 POL       0.064381
    134 H41          8.4080     3.4420    -6.4740 ha         1 POL       0.065134
    135 H42          8.2220     2.2390    -2.2240 ha         1 POL       0.065134
    136 H43          8.8640     2.1310     0.1270 ha         1 POL       0.064381
    137 O16          2.4400     4.4980    -4.7790 o          1 POL      -0.270821
    138 C72          2.5830     3.4530    -5.4690 c          1 POL       0.257628
    139 C73          3.4960     1.8520    -6.7740 c          1 POL       0.257533
    140 O17          4.3240     1.1550    -7.4180 o          1 POL      -0.270822
    141 C74          2.0580     1.6190    -6.7210 ca         1 POL       0.050832
    142 C75          1.2820     0.6240    -7.3050 ca         1 POL      -0.046212
    143 C76         -0.0980     0.6230    -7.0450 ca         1 POL      -0.030409
    144 C77         -0.6840     1.6210    -6.2280 ca         1 POL       0.082810
    145 O18         -2.0760     1.5930    -6.0630 os         1 POL      -0.310416
    146 C78         -2.8360     2.3660    -5.1760 ca         1 POL       0.082810
    147 C79         -4.0590     2.8910    -5.6430 ca         1 POL      -0.030409
    148 C80         -4.8640     3.6890    -4.8190 ca         1 POL      -0.046212
    149 C81         -4.4400     3.9150    -3.5140 ca         1 POL       0.050832
    150 C82         -5.1070     4.5980    -2.4150 c          1 POL       0.257533
    151 O19         -6.2120     5.1970    -2.4970 o          1 POL      -0.270822
    152 C83         -3.2370     3.6550    -1.5920 c          1 POL       0.257628
    153 O20         -2.3600     3.2390    -0.7910 o          1 POL      -0.270821
    154 C84         -3.2870     3.3510    -3.0210 ca         1 POL       0.053259
    155 C85         -2.4550     2.5680    -3.8260 ca         1 POL      -0.017827
    156 C86          0.1310     2.6330    -5.6680 ca         1 POL      -0.017827
    157 C87          1.5010     2.5900    -5.9230 ca         1 POL       0.053259
    158 H44          1.7280    -0.1310    -7.9360 ha         1 POL       0.063224
    159 H45         -0.7160    -0.1480    -7.4870 ha         1 POL       0.065090
    160 H46         -4.3810     2.6790    -6.6510 ha         1 POL       0.065090
    161 H47         -5.7980     4.1010    -5.1820 ha         1 POL       0.063224
    162 H48         -1.5650     2.1070    -3.4150 ha         1 POL       0.065925
    163 H49         -0.2780     3.4300    -5.0650 ha         1 POL       0.065925
    164 N8          -4.3590     4.4590    -1.2040 n          1 POL      -0.201590
    165 C88         -4.9870     4.3910     0.0800 ca         1 POL       0.044175
    166 C89         -4.8830     5.4650     0.9720 ca         1 POL      -0.037388
    167 C90         -5.5530     5.4210     2.2000 ca         1 POL      -0.029358
    168 C91         -6.3200     4.3040     2.5560 ca         1 POL       0.082107
    169 O21         -6.9750     4.3000     3.7980 os         1 POL      -0.310465
    170 C92         -7.4210     3.1490     4.4620 ca         1 POL       0.082107
    171 C93         -6.6380     1.9860     4.5090 ca         1 POL      -0.029358
    172 C94         -7.1470     0.8140     5.0770 ca         1 POL      -0.037388
    173 C95         -8.4240     0.8050     5.6530 ca         1 POL       0.044175
    174 N9          -8.9830    -0.4270     6.1340 n          1 POL      -0.201590
    175 C96         -9.1670     1.9980     5.6920 ca         1 POL      -0.037388
    176 C97         -8.6620     3.1620     5.1020 ca         1 POL      -0.029358
    177 C98         -6.4440     3.2400     1.6410 ca         1 POL      -0.029358
    178 C99         -5.7770     3.2850     0.4150 ca         1 POL      -0.037388
    179 H50         -4.2900     6.3350     0.7170 ha         1 POL       0.064381
    180 H51         -5.4610     6.2530     2.8890 ha         1 POL       0.065134
    181 H52         -5.6450     1.9860     4.0890 ha         1 POL       0.065134
    182 H53         -6.5450    -0.0860     5.0720 ha         1 POL       0.064381
    183 H54        -10.1530     2.0180     6.1310 ha         1 POL       0.064381
    184 H55         -9.2610     4.0600     5.0980 ha         1 POL       0.065134
    185 H56         -7.0680     2.3820     1.8610 ha         1 POL       0.065134
    186 H57         -5.8830     2.4610    -0.2810 ha         1 POL       0.064381
    187 O22         -8.4170    -1.8880     4.3390 o          1 POL      -0.270821
    188 C100        -9.0270    -1.6660     5.4200 c          1 POL       0.257628
    189 C101        -9.8880    -0.6150     7.2290 c          1 POL       0.257533
    190 O23        -10.1140     0.2460     8.1200 o          1 POL      -0.270822
    191 C102       -10.4500    -1.9660     7.1910 ca         1 POL       0.050832
    192 C103       -11.3340    -2.6180     8.0500 ca         1 POL      -0.046212
    193 C104       -11.6880    -3.9500     7.7510 ca         1 POL      -0.030409
    194 C105       -11.1740    -4.5940     6.6030 ca         1 POL       0.082810
    195 O24        -11.5410    -5.9240     6.3400 os         1 POL      -0.310416
    196 C106       -11.4730    -6.5060     5.0690 ca         1 POL       0.082810
    197 C107       -12.0620    -5.8670     3.9500 ca         1 POL      -0.030409
    198 C108       -11.9250    -6.4100     2.6630 ca         1 POL      -0.046212
    199 C109       -11.2000    -7.5900     2.5240 ca         1 POL       0.050832
    200 C110       -10.7400    -8.2790     1.3270 c          1 POL       0.257533
    201 O25        -11.0330    -7.9540     0.1440 o          1 POL      -0.270822
    202 C111        -9.8480    -9.3380     3.1060 c          1 POL       0.257628
    203 O26         -9.1570   -10.1130     3.8170 o          1 POL      -0.270821
    204 C112       -10.6570    -8.2360     3.6120 ca         1 POL       0.053259
    205 C113       -10.7890    -7.7270     4.9020 ca         1 POL      -0.017827
    206 C114       -10.2750    -3.9030     5.7600 ca         1 POL      -0.017827
    207 C115        -9.9250    -2.5990     6.0880 ca         1 POL       0.053259
    208 H58        -11.7300    -2.1210     8.9290 ha         1 POL       0.063224
    209 H59        -12.3660    -4.4830     8.4040 ha         1 POL       0.065090
    210 H60        -12.5980    -4.9360     4.0800 ha         1 POL       0.065090
    211 H61        -12.3280    -5.8970     1.7990 ha         1 POL       0.063224
    212 H62        -10.3210    -8.2190     5.7450 ha         1 POL       0.065925
    213 H63         -9.8370    -4.3720     4.8900 ha         1 POL       0.065925
    214 N10         -9.8830    -9.3750     1.6740 n          1 POL      -0.201590
    215 C116        -8.8390    -9.9270     0.8520 ca         1 POL       0.044175
    216 C117        -8.1760    -9.1310    -0.0950 ca         1 POL      -0.037388
    217 C118        -7.0890    -9.6310    -0.8110 ca         1 POL      -0.029358
    218 C119        -6.6630   -10.9590    -0.6190 ca         1 POL       0.082107
    219 O27         -5.5440   -11.4930    -1.2800 os         1 POL      -0.310465
    220 C120        -4.9390   -10.9720    -2.4360 ca         1 POL       0.082107
    221 C121        -5.6950   -10.4480    -3.4980 ca         1 POL      -0.029358
    222 C122        -5.0560    -9.9190    -4.6240 ca         1 POL      -0.037388
    223 C123        -3.6540    -9.9380    -4.7230 ca         1 POL       0.044175
    224 N11         -2.9890    -9.3530    -5.8580 n          1 POL      -0.201590
    225 C124        -2.9070   -10.5040    -3.6790 ca         1 POL      -0.037388
    226 C125        -3.5440   -11.0180    -2.5460 ca         1 POL      -0.029358
    227 C126        -7.3380   -11.7620     0.3090 ca         1 POL      -0.029358
    228 C127        -8.4130   -11.2480     1.0440 ca         1 POL      -0.037388
    229 H64         -8.4770    -8.1060    -0.2550 ha         1 POL       0.064381
    230 H65         -6.5610    -8.9660    -1.4820 ha         1 POL       0.065134
    231 H66         -6.7790   -10.4460    -3.4550 ha         1 POL       0.065134
    232 H67         -5.6610    -9.4850    -5.4120 ha         1 POL       0.064381
    233 H68         -1.8250   -10.5490    -3.7380 ha         1 POL       0.064381
    234 H69         -2.9550   -11.4450    -1.7460 ha         1 POL       0.065134
    235 H70         -7.0160   -12.7810     0.4760 ha         1 POL       0.065134
    236 H71         -8.9080   -11.8820     1.7670 ha         1 POL       0.064381
    237 O28         -1.1230    -8.3080    -4.8080 o          1 POL      -0.270821
    238 C128        -1.8180    -8.5300    -5.8330 c          1 POL       0.257628
    239 C129        -3.4610    -9.2610    -7.2080 c          1 POL       0.257533
    240 O29         -4.4670    -9.8680    -7.6560 o          1 POL      -0.270822
    241 C130        -2.5820    -8.3950    -7.9870 ca         1 POL       0.050832
    242 C131        -2.6310    -8.0100    -9.3250 ca         1 POL      -0.046212
    243 C132        -1.6420    -7.1290    -9.7970 ca         1 POL      -0.030409
    244 C133        -0.6420    -6.6310    -8.9270 ca         1 POL       0.082810
    245 O30          0.3340    -5.7700    -9.4480 os         1 POL      -0.310416
    246 C134         1.0580    -4.8350    -8.6960 ca         1 POL       0.082810
    247 C135         0.4270    -4.0240    -7.7170 ca         1 POL      -0.030409
    248 C136         1.1650    -3.0740    -6.9900 ca         1 POL      -0.046212
    249 C137         2.5320    -2.9770    -7.2360 ca         1 POL       0.050832
    250 C138         3.5490    -2.1160    -6.6460 c          1 POL       0.257533
    251 O31          3.3450    -1.2850    -5.7210 o          1 POL      -0.270822
    252 C139         4.5450    -3.3550    -8.2560 c          1 POL       0.257628
    253 O32          5.4110    -3.8730    -9.0100 o          1 POL      -0.270821
    254 C140         3.1410    -3.7400    -8.2050 ca         1 POL       0.053259
    255 C141         2.4300    -4.6730    -8.9570 ca         1 POL      -0.017827
    256 C142        -0.6210    -7.0430    -7.5740 ca         1 POL      -0.017827
    257 C143        -1.5920    -7.9410    -7.1450 ca         1 POL       0.053259
    258 H72         -3.4100    -8.3770    -9.9800 ha         1 POL       0.063224
    259 H73         -1.6550    -6.8170   -10.8330 ha         1 POL       0.065090
    260 H74         -0.6320    -4.1210    -7.5340 ha         1 POL       0.065090
    261 H75          0.6840    -2.4370    -6.2610 ha         1 POL       0.063224
    262 H76          2.9260    -5.2620    -9.7160 ha         1 POL       0.065925
    263 H77          0.1330    -6.6900    -6.8860 ha         1 POL       0.065925
    264 N12          4.8160    -2.3350    -7.2820 n          1 POL      -0.201590
    265 C144         6.0040    -1.5260    -7.1600 ca         1 POL       0.044175
    266 C145         6.8210    -1.2830    -8.2780 ca         1 POL      -0.037388
    267 C146         7.9620    -0.4900    -8.1620 ca         1 POL      -0.029358
    268 C147         8.3160     0.0720    -6.9340 ca         1 POL       0.082107
    269 O33          9.4640     0.8760    -6.8780 os         1 POL      -0.310465
    270 C148        10.2860     1.0770    -5.7600 ca         1 POL       0.082107
    271 C149        11.0460     2.2510    -5.6990 ca         1 POL      -0.029358
    272 C150        11.8940     2.4940    -4.6150 ca         1 POL      -0.037388
    273 C151        12.0030     1.5580    -3.5750 ca         1 POL       0.044175
    274 N13         12.8720     1.8130    -2.4580 n          1 POL      -0.201590
    275 C152        11.2630     0.3660    -3.6480 ca         1 POL      -0.037388
    276 C153        10.4190     0.1230    -4.7370 ca         1 POL      -0.029358
    277 C154         7.4890    -0.1400    -5.8190 ca         1 POL      -0.029358
    278 C155         6.3510    -0.9460    -5.9280 ca         1 POL      -0.037388
    279 H78          6.5660    -1.6780    -9.2530 ha         1 POL       0.064381
    280 H79          8.5780    -0.3070    -9.0330 ha         1 POL       0.065134
    281 H80         10.9720     2.9820    -6.4930 ha         1 POL       0.065134
    282 H81         12.4430     3.4260    -4.5740 ha         1 POL       0.064381
    283 H82         11.3700    -0.3930    -2.8860 ha         1 POL       0.064381
    284 H83          9.8970    -0.8220    -4.7920 ha         1 POL       0.065134
    285 H84          7.7090     0.3290    -4.8670 ha         1 POL       0.065134
    286 H85          5.7530    -1.1240    -5.0450 ha         1 POL       0.064381
    287 O34         11.6750     0.8150    -0.6590 o          1 POL      -0.270821
    288 C156        12.6890     1.4170    -1.0950 c          1 POL       0.257628
    289 C157        14.1810     2.3910    -2.4910 c          1 POL       0.257533
    290 O35         14.7560     2.7930    -3.5370 o          1 POL      -0.270822
    291 C158        14.7750     2.3590    -1.1590 ca         1 POL       0.050832
    292 C159        16.0520     2.7120    -0.7270 ca         1 POL      -0.046212
    293 C160        16.3850     2.4670     0.6170 ca         1 POL      -0.030409
    294 C161        15.4410     1.9000     1.5040 ca         1 POL       0.082810
    295 O36         15.8240     1.6410     2.8250 os         1 POL      -0.310416
    296 C162        14.9470     1.7480     3.9080 ca         1 POL       0.082810
    297 C163        14.3680     2.9980     4.2330 ca         1 POL      -0.030409
    298 C164        13.5300     3.1300     5.3540 ca         1 POL      -0.046212
    299 C165        13.2780     1.9920     6.1140 ca         1 POL       0.050832
    300 C166        12.4030     1.7960     7.2600 c          1 POL       0.257533
    301 O37         11.7890     2.7150     7.8650 o          1 POL      -0.270822
    302 C167        13.2080    -0.2200     6.6730 c          1 POL       0.257628
    303 O38         13.4220    -1.4620     6.6280 o          1 POL      -0.270821
    304 C168        13.7950     0.7650     5.7730 ca         1 POL       0.053259
    305 C169        14.6550     0.6110     4.6870 ca         1 POL      -0.017827
    306 C170        14.1530     1.5560     1.0370 ca         1 POL      -0.017827
    307 C171        13.8600     1.7810    -0.3070 ca         1 POL       0.053259
    308 H86         16.7780     3.1350    -1.4080 ha         1 POL       0.063224
    309 H87         17.3760     2.7130     0.9780 ha         1 POL       0.065090
    310 H88         14.5810     3.8660     3.6250 ha         1 POL       0.065090
    311 H89         13.0770     4.0790     5.6030 ha         1 POL       0.063224
    312 H90         15.0660    -0.3570     4.4380 ha         1 POL       0.065925
    313 H91         13.4310     1.0760     1.6860 ha         1 POL       0.065925
    314 N14         12.3160     0.4080     7.6050 n          1 POL      -0.201590
    315 C172        11.0950    -0.1730     8.0850 ca         1 POL       0.044175
    316 C173        10.6050     0.1720     9.3560 ca         1 POL      -0.037388
    317 C174         9.3100    -0.2010     9.7370 ca         1 POL      -0.029358
    318 C175         8.4770    -0.8620     8.8240 ca         1 POL       0.082107
    319 O39          7.1080    -0.9840     9.0860 os         1 POL      -0.310465
    320 C176         6.1360    -0.3550     8.2880 ca         1 POL       0.082107
    321 C177         6.4780     0.6950     7.4180 ca         1 POL      -0.029358
    322 C178         5.5140     1.3050     6.6240 ca         1 POL      -0.037388
    323 C179         4.1820     0.8840     6.6820 ca         1 POL       0.044175
    324 N15          3.1950     1.5110     5.8500 n          1 POL      -0.201590
    325 C180         3.8250    -0.1530     7.5610 ca         1 POL      -0.037388
    326 C181         4.7970    -0.7630     8.3660 ca         1 POL      -0.029358
    327 C182         9.0000    -1.3000     7.5980 ca         1 POL      -0.029358
    328 C183        10.3030    -0.9580     7.2310 ca         1 POL      -0.037388
    329 H92         11.2070     0.7760    10.0230 ha         1 POL       0.064381
    330 H93          8.9240     0.1040    10.7000 ha         1 POL       0.065134
    331 H94          7.4910     1.0530     7.3590 ha         1 POL       0.065134
    332 H95          5.8150     2.1030     5.9580 ha         1 POL       0.064381
    333 H96          2.7920    -0.4720     7.6320 ha         1 POL       0.064381
    334 H97          4.5140    -1.5580     9.0440 ha         1 POL       0.065134
    335 H98          8.3670    -1.8330     6.8990 ha         1 POL       0.065134
    336 H99         10.6590    -1.2260     6.2440 ha         1 POL       0.064381
    337 O40          3.8410     3.8020     5.9860 o          1 POL      -0.270821
    338 C184         3.1400     2.8910     5.4710 c          1 POL       0.257628
    339 C185         2.3070     0.8590     4.9360 c          1 POL       0.257533
    340 O41          2.1150    -0.3860     4.8930 o          1 POL      -0.270822
    341 C186         1.7020     1.8420     4.0380 ca         1 POL       0.050832
    342 C187         0.8190     1.6900     2.9720 ca         1 POL      -0.046212
    343 C188         0.4060     2.8490     2.2900 ca         1 POL      -0.030409
    344 C189         0.8640     4.1310     2.6930 ca         1 POL       0.082810
    345 O42          0.3840     5.2960     2.0850 os         1 POL      -0.310416
    346 C190         0.1380     5.4160     0.7140 ca         1 POL       0.082810
    347 C191         0.9860     4.7920    -0.2380 ca         1 POL      -0.030409
    348 C192         0.7740     4.9800    -1.6110 ca         1 POL      -0.046212
    349 C193        -0.2930     5.7820    -2.0060 ca         1 POL       0.050832
    350 C194        -0.7570     6.1610    -3.3330 c          1 POL       0.257535
    351 O43         -0.1450     5.9280    -4.4080 o          1 POL      -0.270822
    352 C195        -2.1720     7.0760    -1.8260 c          1 POL       0.257629
    353 O44         -3.1600     7.6590    -1.3080 o          1 POL      -0.270821
    354 C196        -1.1360     6.3650    -1.0880 ca         1 POL       0.053259
    355 C197        -0.9410     6.2100     0.2820 ca         1 POL      -0.017827
    356 C198         1.7780     4.2450     3.7530 ca         1 POL      -0.017827
    357 C199         2.1900     3.0800     4.3910 ca         1 POL       0.053259
    358 H100         0.4420     0.7130     2.6880 ha         1 POL       0.063224
    359 H101        -0.2980     2.7610     1.4760 ha         1 POL       0.065090
    360 H102         1.8300     4.1950     0.0830 ha         1 POL       0.065090
    361 H103         1.4230     4.5130    -2.3380 ha         1 POL       0.063224
    362 H104        -1.6050     6.6830     0.9930 ha         1 POL       0.065925
    363 H105         2.1470     5.2130     4.0670 ha         1 POL       0.065925
    364 N16         -1.9460     6.9540    -3.2360 n          1 POL      -0.201497
    365 C200        -2.8580     7.2950    -4.2980 ca         1 POL       0.046667
    366 C201        -2.9420     6.4920    -5.4440 ca         1 POL      -0.017728
    367 C202        -3.8420     6.8000    -6.4720 ca         1 POL       0.046667
    368 N17         -3.9300     5.9590    -7.6360 n          1 POL      -0.201497
    369 C203        -4.6940     7.9050    -6.3340 ca         1 POL      -0.027289
    370 C204        -4.6220     8.7300    -5.1960 ca         1 POL       0.040792
    371 C205        -5.5490     9.8770    -5.0080 c          1 POL       0.243025
    372 O45         -5.6400    10.4160    -3.8720 o          1 POL      -0.271952
    373 N18         -6.3610    10.3730    -6.0840 ns         1 POL      -0.311030
    374 C206        -7.5510    11.1840    -5.8380 c3         1 POL       0.015325
    375 C207        -8.6480    10.3390    -5.1800 c3         1 POL      -0.012104
    376 C208        -9.8700    11.1690    -4.8980 ca         1 POL      -0.043685
    377 C209       -10.9250    11.2170    -5.8190 ca         1 POL      -0.056199
    378 C210       -12.0530    12.0020    -5.5610 ca         1 POL      -0.029102
    379 C211       -12.1320    12.7610    -4.3860 ca         1 POL       0.101217
    380 O46        -13.2690    13.5340    -4.1540 oh         1 POL      -0.358222
    381 C212       -11.0710    12.7300    -3.4650 ca         1 POL       0.101475
    382 O47        -11.1400    13.4840    -2.2960 oh         1 POL      -0.358214
    383 C213        -9.9430    11.9370    -3.7260 ca         1 POL      -0.026100
    384 C214        -3.6900     8.4190    -4.1900 ca         1 POL      -0.027289
    385 H106        -2.3530     5.5890    -5.5100 ha         1 POL       0.066308
    386 H107        -5.4130     8.1020    -7.1160 ha         1 POL       0.065120
    387 H108        -6.0750    10.2070    -7.0750 hn         1 POL       0.149692
    388 H109        -7.2850    12.0500    -5.1890 h1         1 POL       0.047031
    389 H110        -7.9270    11.5830    -6.8060 h1         1 POL       0.047031
    390 H111        -8.2750     9.9080    -4.2270 hc         1 POL       0.033214
    391 H112        -8.9080     9.4830    -5.8440 hc         1 POL       0.033214
    392 H113       -10.8740    10.6510    -6.7410 ha         1 POL       0.062665
    393 H114       -12.8630    12.0290    -6.2790 ha         1 POL       0.065146
    394 H115       -13.3680    14.1110    -3.3280 ho         1 POL       0.218378
    395 H116       -10.3890    13.4800    -1.6150 ho         1 POL       0.218378
    396 H117        -9.1220    11.9250    -3.0210 ha         1 POL       0.065431
    397 H118        -3.6050     9.0600    -3.3220 ha         1 POL       0.065120
    398 O48         -1.6490     5.3490    -7.9810 o          1 POL      -0.270821
    399 C215        -2.8780     5.1480    -8.1790 c          1 POL       0.257629
    400 C216        -5.1280     5.3440    -8.1230 c          1 POL       0.257535
    401 O49         -6.2920     5.7020    -7.8030 o          1 POL      -0.270822
    402 C217        -4.8040     4.1820    -8.9410 ca         1 POL       0.050832
    403 C218        -5.6360     3.1920    -9.4610 ca         1 POL      -0.046212
    404 C219        -5.0360     2.0520   -10.0230 ca         1 POL      -0.030409
    405 C220        -3.6280     1.9160   -10.0340 ca         1 POL       0.082810
    406 O50         -3.0490     0.7310   -10.4970 os         1 POL      -0.310416
    407 C221        -3.1300    -0.4740    -9.7860 ca         1 POL       0.082810
    408 C222        -2.9250    -1.6920   -10.4730 ca         1 POL      -0.030409
    409 C223        -3.0210    -2.9240    -9.7980 ca         1 POL      -0.046212
    410 C224        -3.2820    -2.9020    -8.4310 ca         1 POL       0.050832
    411 C225        -3.4550    -3.9860    -7.4720 c          1 POL       0.257533
    412 O51         -3.4970    -5.2090    -7.7670 o          1 POL      -0.270822
    413 C226        -3.6540    -2.0380    -6.3410 c          1 POL       0.257628
    414 O52         -3.7300    -1.1930    -5.4100 o          1 POL      -0.270821
    415 C227        -3.4390    -1.7190    -7.7470 ca         1 POL       0.053259
    416 C228        -3.3960    -0.4910    -8.3980 ca         1 POL      -0.017827
    417 C229        -2.8100     2.9400    -9.5220 ca         1 POL      -0.017827
    418 C230        -3.4320     4.0610    -8.9730 ca         1 POL       0.053259
    419 H119        -6.7120     3.2740    -9.3910 ha         1 POL       0.063224
    420 H120        -5.6570     1.2540   -10.4090 ha         1 POL       0.065090
    421 H121        -2.7090    -1.6820   -11.5370 ha         1 POL       0.065090
    422 H122        -2.8920    -3.8610   -10.3240 ha         1 POL       0.063224
    423 H123        -3.5530     0.4240    -7.8440 ha         1 POL       0.065925
    424 H124        -1.7340     2.8210    -9.4790 ha         1 POL       0.065925
    425 N19         -3.6660    -3.4580    -6.1540 n          1 POL      -0.201590
    426 C231        -3.9390    -4.1960    -4.9450 ca         1 POL       0.044175
    427 C232        -3.4270    -5.4900    -4.7680 ca         1 POL      -0.037388
    428 C233        -3.7490    -6.2390    -3.6330 ca         1 POL      -0.029358
    429 C234        -4.5690    -5.7030    -2.6360 ca         1 POL       0.082107
    430 O53         -4.8410    -6.5020    -1.5110 os         1 POL      -0.310465
    431 C235        -5.8090    -6.2610    -0.5240 ca         1 POL       0.082106
    432 C236        -5.5100    -6.6190     0.7940 ca         1 POL      -0.029401
    433 C237        -6.4220    -6.3690     1.8210 ca         1 POL      -0.038738
    434 C238        -7.6560    -5.7720     1.5340 ca         1 POL       0.023437
    435 N20         -8.5790    -5.4950     2.5870 nv         1 POL      -0.358295
    436 C239        -7.9770    -5.4470     0.2090 ca         1 POL      -0.038738
    437 C240        -7.0680    -5.7100    -0.8200 ca         1 POL      -0.029401
    438 C241        -5.0300    -4.3800    -2.7750 ca         1 POL      -0.029358
    439 C242        -4.7350    -3.6440    -3.9260 ca         1 POL      -0.037388
    440 H125        -2.7600    -5.9190    -5.5020 ha         1 POL       0.064381
    441 H126        -3.3480    -7.2370    -3.5120 ha         1 POL       0.065134
    442 H127        -4.5530    -7.0700     1.0230 ha         1 POL       0.065134
    443 H128        -6.1640    -6.6340     2.8380 ha         1 POL       0.064338
    444 H129        -9.4670    -4.9840     2.3910 hn         1 POL       0.142659
    445 H130        -8.3750    -5.7850     3.5700 hn         1 POL       0.142659
    446 H131        -8.9410    -5.0160    -0.0260 ha         1 POL       0.064338
    447 H132        -7.3530    -5.4980    -1.8450 ha         1 POL       0.065134
    448 H133        -5.6000    -3.8990    -1.9930 ha         1 POL       0.065134
    449 H134        -5.1520    -2.6510    -4.0180 ha         1 POL       0.064381
@<TRIPOS>BOND
     1     1     2 1   
     2     2     3 ar  
     3     3     4 ar  
     4     4     5 ar  
     5     5     6 1   
     6     6     7 1   
     7     7     8 ar  
     8     8     9 ar  
     9     9    10 ar  
    10    10    11 1   
    11    10    12 ar  
    12    12    13 ar  
    13     5    14 ar  
    14    14    15 ar  
    15    15     2 ar  
    16    13     7 ar  
    17     1    16 1   
    18     1    17 1   
    19     3    18 1   
    20     4    19 1   
    21     8    20 1   
    22     9    21 1   
    23    12    22 1   
    24    13    23 1   
    25    14    24 1   
    26    15    25 1   
    27    26    27 2   
    28    28    29 2   
    29    28    30 1   
    30    30    31 ar  
    31    31    32 ar  
    32    32    33 ar  
    33    33    34 1   
    34    34    35 1   
    35    35    36 ar  
    36    36    37 ar  
    37    37    38 ar  
    38    38    39 1   
    39    39    40 2   
    40    41    42 2   
    41    41    43 1   
    42    43    44 ar  
    43    33    45 ar  
    44    45    46 ar  
    45    46    27 1   
    46    46    30 ar  
    47    44    35 ar  
    48    43    38 ar  
    49    31    47 1   
    50    32    48 1   
    51    36    49 1   
    52    37    50 1   
    53    44    51 1   
    54    45    52 1   
    55    53    54 1   
    56    54    55 ar  
    57    55    56 ar  
    58    56    57 1   
    59    56    58 ar  
    60    58    59 ar  
    61    59    60 1   
    62    60    61 2   
    63    60    62 1   
    64    62    63 1   
    65    63    64 1   
    66    64    65 1   
    67    65    66 ar  
    68    66    67 ar  
    69    67    68 ar  
    70    68    69 1   
    71    68    70 ar  
    72    70    71 1   
    73    70    72 ar  
    74    59    73 ar  
    75    73    54 ar  
    76    72    65 ar  
    77    55    74 1   
    78    58    75 1   
    79    62    76 1   
    80    63    77 1   
    81    63    78 1   
    82    64    79 1   
    83    64    80 1   
    84    66    81 1   
    85    67    82 1   
    86    69    83 1   
    87    71    84 1   
    88    72    85 1   
    89    73    86 1   
    90    87    88 2   
    91    89    90 2   
    92    89    91 1   
    93    91    92 ar  
    94    92    93 ar  
    95    93    94 ar  
    96    94    95 1   
    97    95    96 1   
    98    96    97 ar  
    99    97    98 ar  
   100    98    99 ar  
   101    99   100 1   
   102   100   101 2   
   103   102   103 2   
   104   102   104 1   
   105   104   105 ar  
   106    94   106 ar  
   107   106   107 ar  
   108   107    88 1   
   109   107    91 ar  
   110   105    96 ar  
   111   104    99 ar  
   112    92   108 1   
   113    93   109 1   
   114    97   110 1   
   115    98   111 1   
   116   105   112 1   
   117   106   113 1   
   118   114   115 1   
   119   115   116 ar  
   120   116   117 ar  
   121   117   118 ar  
   122   118   119 1   
   123   119   120 1   
   124   120   121 ar  
   125   121   122 ar  
   126   122   123 ar  
   127   123   124 1   
   128   123   125 ar  
   129   125   126 ar  
   130   118   127 ar  
   131   127   128 ar  
   132   128   115 ar  
   133   126   120 ar  
   134   116   129 1   
   135   117   130 1   
   136   121   131 1   
   137   122   132 1   
   138   125   133 1   
   139   126   134 1   
   140   127   135 1   
   141   128   136 1   
   142   137   138 2   
   143   139   140 2   
   144   139   141 1   
   145   141   142 ar  
   146   142   143 ar  
   147   143   144 ar  
   148   144   145 1   
   149   145   146 1   
   150   146   147 ar  
   151   147   148 ar  
   152   148   149 ar  
   153   149   150 1   
   154   150   151 2   
   155   152   153 2   
   156   152   154 1   
   157   154   155 ar  
   158   144   156 ar  
   159   156   157 ar  
   160   157   138 1   
   161   157   141 ar  
   162   155   146 ar  
   163   154   149 ar  
   164   142   158 1   
   165   143   159 1   
   166   147   160 1   
   167   148   161 1   
   168   155   162 1   
   169   156   163 1   
   170   164   165 1   
   171   165   166 ar  
   172   166   167 ar  
   173   167   168 ar  
   174   168   169 1   
   175   169   170 1   
   176   170   171 ar  
   177   171   172 ar  
   178   172   173 ar  
   179   173   174 1   
   180   173   175 ar  
   181   175   176 ar  
   182   168   177 ar  
   183   177   178 ar  
   184   178   165 ar  
   185   176   170 ar  
   186   166   179 1   
   187   167   180 1   
   188   171   181 1   
   189   172   182 1   
   190   175   183 1   
   191   176   184 1   
   192   177   185 1   
   193   178   186 1   
   194   187   188 2   
   195   189   190 2   
   196   189   191 1   
   197   191   192 ar  
   198   192   193 ar  
   199   193   194 ar  
   200   194   195 1   
   201   195   196 1   
   202   196   197 ar  
   203   197   198 ar  
   204   198   199 ar  
   205   199   200 1   
   206   200   201 2   
   207   202   203 2   
   208   202   204 1   
   209   204   205 ar  
   210   194   206 ar  
   211   206   207 ar  
   212   207   188 1   
   213   207   191 ar  
   214   205   196 ar  
   215   204   199 ar  
   216   192   208 1   
   217   193   209 1   
   218   197   210 1   
   219   198   211 1   
   220   205   212 1   
   221   206   213 1   
   222   214   215 1   
   223   215   216 ar  
   224   216   217 ar  
   225   217   218 ar  
   226   218   219 1   
   227   219   220 1   
   228   220   221 ar  
   229   221   222 ar  
   230   222   223 ar  
   231   223   224 1   
   232   223   225 ar  
   233   225   226 ar  
   234   218   227 ar  
   235   227   228 ar  
   236   228   215 ar  
   237   226   220 ar  
   238   216   229 1   
   239   217   230 1   
   240   221   231 1   
   241   222   232 1   
   242   225   233 1   
   243   226   234 1   
   244   227   235 1   
   245   228   236 1   
   246   237   238 2   
   247   239   240 2   
   248   239   241 1   
   249   241   242 ar  
   250   242   243 ar  
   251   243   244 ar  
   252   244   245 1   
   253   245   246 1   
   254   246   247 ar  
   255   247   248 ar  
   256   248   249 ar  
   257   249   250 1   
   258   250   251 2   
   259   252   253 2   
   260   252   254 1   
   261   254   255 ar  
   262   244   256 ar  
   263   256   257 ar  
   264   257   238 1   
   265   257   241 ar  
   266   255   246 ar  
   267   254   249 ar  
   268   242   258 1   
   269   243   259 1   
   270   247   260 1   
   271   248   261 1   
   272   255   262 1   
   273   256   263 1   
   274   264   265 1   
   275   265   266 ar  
   276   266   267 ar  
   277   267   268 ar  
   278   268   269 1   
   279   269   270 1   
   280   270   271 ar  
   281   271   272 ar  
   282   272   273 ar  
   283   273   274 1   
   284   273   275 ar  
   285   275   276 ar  
   286   268   277 ar  
   287   277   278 ar  
   288   278   265 ar  
   289   276   270 ar  
   290   266   279 1   
   291   267   280 1   
   292   271   281 1   
   293   272   282 1   
   294   275   283 1   
   295   276   284 1   
   296   277   285 1   
   297   278   286 1   
   298   287   288 2   
   299   289   290 2   
   300   289   291 1   
   301   291   292 ar  
   302   292   293 ar  
   303   293   294 ar  
   304   294   295 1   
   305   295   296 1   
   306   296   297 ar  
   307   297   298 ar  
   308   298   299 ar  
   309   299   300 1   
   310   300   301 2   
   311   302   303 2   
   312   302   304 1   
   313   304   305 ar  
   314   294   306 ar  
   315   306   307 ar  
   316   307   288 1   
   317   307   291 ar  
   318   305   296 ar  
   319   304   299 ar  
   320   292   308 1   
   321   293   309 1   
   322   297   310 1   
   323   298   311 1   
   324   305   312 1   
   325   306   313 1   
   326   314   315 1   
   327   315   316 ar  
   328   316   317 ar  
   329   317   318 ar  
   330   318   319 1   
   331   319   320 1   
   332   320   321 ar  
   333   321   322 ar  
   334   322   323 ar  
   335   323   324 1   
   336   323   325 ar  
   337   325   326 ar  
   338   318   327 ar  
   339   327   328 ar  
   340   328   315 ar  
   341   326   320 ar  
   342   316   329 1   
   343   317   330 1   
   344   321   331 1   
   345   322   332 1   
   346   325   333 1   
   347   326   334 1   
   348   327   335 1   
   349   328   336 1   
   350   337   338 2   
   351   339   340 2   
   352   339   341 1   
   353   341   342 ar  
   354   342   343 ar  
   355   343   344 ar  
   356   344   345 1   
   357   345   346 1   
   358   346   347 ar  
   359   347   348 ar  
   360   348   349 ar  
   361   349   350 1   
   362   350   351 2   
   363   352   353 2   
   364   352   354 1   
   365   354   355 ar  
   366   344   356 ar  
   367   356   357 ar  
   368   357   338 1   
   369   357   341 ar  
   370   355   346 ar  
   371   354   349 ar  
   372   342   358 1   
   373   343   359 1   
   374   347   360 1   
   375   348   361 1   
   376   355   362 1   
   377   356   363 1   
   378   364   365 1   
   379   365   366 ar  
   380   366   367 ar  
   381   367   368 1   
   382   367   369 ar  
   383   369   370 ar  
   384   370   371 1   
   385   371   372 2   
   386   371   373 1   
   387   373   374 1   
   388   374   375 1   
   389   375   376 1   
   390   376   377 ar  
   391   377   378 ar  
   392   378   379 ar  
   393   379   380 1   
   394   379   381 ar  
   395   381   382 1   
   396   381   383 ar  
   397   370   384 ar  
   398   384   365 ar  
   399   383   376 ar  
   400   366   385 1   
   401   369   386 1   
   402   373   387 1   
   403   374   388 1   
   404   374   389 1   
   405   375   390 1   
   406   375   391 1   
   407   377   392 1   
   408   378   393 1   
   409   380   394 1   
   410   382   395 1   
   411   383   396 1   
   412   384   397 1   
   413   398   399 2   
   414   400   401 2   
   415   400   402 1   
   416   402   403 ar  
   417   403   404 ar  
   418   404   405 ar  
   419   405   406 1   
   420   406   407 1   
   421   407   408 ar  
   422   408   409 ar  
   423   409   410 ar  
   424   410   411 1   
   425   411   412 2   
   426   413   414 2   
   427   413   415 1   
   428   415   416 ar  
   429   405   417 ar  
   430   417   418 ar  
   431   418   399 1   
   432   418   402 ar  
   433   416   407 ar  
   434   415   410 ar  
   435   403   419 1   
   436   404   420 1   
   437   408   421 1   
   438   409   422 1   
   439   416   423 1   
   440   417   424 1   
   441   425   426 1   
   442   426   427 ar  
   443   427   428 ar  
   444   428   429 ar  
   445   429   430 1   
   446   430   431 1   
   447   431   432 ar  
   448   432   433 ar  
   449   433   434 ar  
   450   434   435 1   
   451   434   436 ar  
   452   436   437 ar  
   453   429   438 ar  
   454   438   439 ar  
   455   439   426 ar  
   456   437   431 ar  
   457   427   440 1   
   458   428   441 1   
   459   432   442 1   
   460   433   443 1   
   461   435   444 1   
   462   435   445 1   
   463   436   446 1   
   464   437   447 1   
   465   438   448 1   
   466   439   449 1   
   467    11    27 1   
   468    11    28 1   
   469    53    39 1   
   470    53    41 1   
   471    57    88 1   
   472    57    89 1   
   473   114   100 1   
   474   114   102 1   
   475   124   138 1   
   476   124   139 1   
   477   164   150 1   
   478   164   152 1   
   479   174   188 1   
   480   174   189 1   
   481   214   200 1   
   482   214   202 1   
   483   224   238 1   
   484   224   239 1   
   485   264   250 1   
   486   264   252 1   
   487   274   288 1   
   488   274   289 1   
   489   314   300 1   
   490   314   302 1   
   491   324   338 1   
   492   324   339 1   
   493   364   350 1   
   494   364   352 1   
   495   368   399 1   
   496   368   400 1   
   497   425   411 1   
   498   425   413 1   
@<TRIPOS>SUBSTRUCTURE
     1 POL         1 TEMP              0 ****  ****    0 ROOT
