@<TRIPOS>MOLECULE
ODA
   27    28     1     0     0
SMALL
bcc


@<TRIPOS>ATOM
      1 N1          -5.1110     0.4410    -0.7630 nv         1 ODA      -0.813200
      2 C1          -3.7470     0.0120    -0.7820 ca         1 ODA       0.116600
      3 C2          -3.2500    -0.7130    -1.8740 ca         1 ODA      -0.169500
      4 C3          -1.9170    -1.1330    -1.8920 ca         1 ODA      -0.119500
      5 C4          -1.0610    -0.8230    -0.8290 ca         1 ODA       0.062100
      6 O1           0.2660    -1.2750    -0.8770 os         1 ODA      -0.248200
      7 C5           1.3650    -0.6360    -0.2860 ca         1 ODA       0.062100
      8 C6           1.4300     0.7630    -0.1530 ca         1 ODA      -0.119500
      9 C7           2.5510     1.3640     0.4270 ca         1 ODA      -0.169500
     10 C8           3.6240     0.5780     0.8700 ca         1 ODA       0.116600
     11 N2           4.7710     1.1930     1.4630 nv         1 ODA      -0.813200
     12 C9           3.5690    -0.8140     0.7200 ca         1 ODA      -0.169500
     13 C10          2.4470    -1.4150     0.1390 ca         1 ODA      -0.119500
     14 C11         -1.5660    -0.1120     0.2760 ca         1 ODA      -0.119500
     15 C12         -2.9000     0.3070     0.2940 ca         1 ODA      -0.169500
     16 H1          -5.7510     0.2230    -1.5600 hn         1 ODA       0.385800
     17 H2          -5.4910     0.9790     0.0470 hn         1 ODA       0.385800
     18 H3          -3.8960    -0.9550    -2.7090 ha         1 ODA       0.135000
     19 H4          -1.5440    -1.6940    -2.7390 ha         1 ODA       0.148000
     20 H5           0.6260     1.3900    -0.5140 ha         1 ODA       0.148000
     21 H6           2.5870     2.4420     0.5260 ha         1 ODA       0.135000
     22 H7           4.8230     2.2300     1.5770 hn         1 ODA       0.385800
     23 H8           5.5770     0.6160     1.7930 hn         1 ODA       0.385800
     24 H9           4.3930    -1.4330     1.0500 ha         1 ODA       0.135000
     25 H10          2.4160    -2.4910     0.0260 ha         1 ODA       0.148000
     26 H11         -0.9360     0.1010     1.1290 ha         1 ODA       0.148000
     27 H12         -3.2740     0.8550     1.1500 ha         1 ODA       0.135000
@<TRIPOS>BOND
     1     1     2 1   
     2     2     3 ar  
     3     3     4 ar  
     4     4     5 ar  
     5     5     6 1   
     6     6     7 1   
     7     7     8 ar  
     8     8     9 ar  
     9     9    10 ar  
    10    10    11 1   
    11    10    12 ar  
    12    12    13 ar  
    13     5    14 ar  
    14    14    15 ar  
    15    15     2 ar  
    16    13     7 ar  
    17     1    16 1   
    18     1    17 1   
    19     3    18 1   
    20     4    19 1   
    21     8    20 1   
    22     9    21 1   
    23    11    22 1   
    24    11    23 1   
    25    12    24 1   
    26    13    25 1   
    27    14    26 1   
    28    15    27 1   
@<TRIPOS>SUBSTRUCTURE
     1 ODA         1 TEMP              0 ****  ****    0 ROOT
