@<TRIPOS>MOLECULE
ODP
   29    32     1     0     0
SMALL
bcc


@<TRIPOS>ATOM
      1 O1          -2.5950     3.1670     0.8510 o          1 ODP      -0.504500
      2 C1          -3.1840     2.0740     1.0530 c          1 ODP       0.734200
      3 O2          -4.4220     1.9550     1.6830 os         1 ODP      -0.426200
      4 C2          -4.7170     0.5930     1.7040 c          1 ODP       0.737200
      5 O3          -5.7660     0.1030     2.1980 o          1 ODP      -0.506500
      6 C3          -3.6370    -0.1580     1.0750 ca         1 ODP      -0.165600
      7 C4          -3.4810    -1.5210     0.8420 ca         1 ODP      -0.031000
      8 C5          -2.3130    -1.9480     0.1850 ca         1 ODP      -0.125000
      9 C6          -1.3250    -1.0180    -0.2150 ca         1 ODP       0.114100
     10 O4          -0.1860    -1.4940    -0.8800 os         1 ODP      -0.238200
     11 C7           1.0850    -0.9040    -0.8370 ca         1 ODP       0.114100
     12 C8           1.9380    -1.0560    -1.9560 ca         1 ODP      -0.125000
     13 C9           3.2290    -0.4980    -1.9580 ca         1 ODP      -0.031000
     14 C10          3.6420     0.1960    -0.8250 ca         1 ODP      -0.165600
     15 C11          4.8990     0.8650    -0.5110 c          1 ODP       0.737200
     16 O5           5.8980     0.9530    -1.2720 o          1 ODP      -0.506500
     17 O6           4.8410     1.4040     0.7730 os         1 ODP      -0.426200
     18 C12          3.5790     1.0860     1.2710 c          1 ODP       0.734200
     19 O7           3.1660     1.4100     2.4150 o          1 ODP      -0.504500
     20 C13          2.8280     0.3330     0.2740 ca         1 ODP      -0.121600
     21 C14          1.5460    -0.2100     0.3070 ca         1 ODP      -0.100000
     22 C15         -1.5270     0.3640     0.0200 ca         1 ODP      -0.100000
     23 C16         -2.6920     0.7550     0.6740 ca         1 ODP      -0.121600
     24 H1          -4.2360    -2.2310     1.1530 ha         1 ODP       0.170000
     25 H2          -2.1670    -3.0020    -0.0090 ha         1 ODP       0.170000
     26 H3           1.5930    -1.6020    -2.8240 ha         1 ODP       0.170000
     27 H4           3.8820    -0.6090    -2.8140 ha         1 ODP       0.170000
     28 H5           0.9370    -0.1140     1.1960 ha         1 ODP       0.174000
     29 H6          -0.8130     1.1060    -0.3120 ha         1 ODP       0.174000
@<TRIPOS>BOND
     1     1     2 2   
     2     2     3 1   
     3     3     4 1   
     4     4     5 2   
     5     4     6 1   
     6     6     7 ar  
     7     7     8 ar  
     8     8     9 ar  
     9     9    10 1   
    10    10    11 1   
    11    11    12 ar  
    12    12    13 ar  
    13    13    14 ar  
    14    14    15 1   
    15    15    16 2   
    16    15    17 1   
    17    17    18 1   
    18    18    19 2   
    19    18    20 1   
    20    20    21 ar  
    21     9    22 ar  
    22    22    23 ar  
    23    23     2 1   
    24    23     6 ar  
    25    21    11 ar  
    26    20    14 ar  
    27     7    24 1   
    28     8    25 1   
    29    12    26 1   
    30    13    27 1   
    31    21    28 1   
    32    22    29 1   
@<TRIPOS>SUBSTRUCTURE
     1 ODP         1 TEMP              0 ****  ****    0 ROOT
