ODPA-ODA-catechol-DP8
     RDKit          3D

449498  0  0  0  0  0  0  0  0999 V2000
    5.9982   -5.6071   -6.4093 N   0  0  0  0  0  0  0  0  0  0  0  0
    4.7269   -5.8294   -5.7927 C   0  0  0  0  0  0  0  0  0  0  0  0
    3.8883   -6.8518   -6.2510 C   0  0  0  0  0  0  0  0  0  0  0  0
    2.6559   -7.0815   -5.6334 C   0  0  0  0  0  0  0  0  0  0  0  0
    2.2363   -6.2838   -4.5631 C   0  0  0  0  0  0  0  0  0  0  0  0
    1.0031   -6.5673   -3.9550 O   0  0  0  0  0  0  0  0  0  0  0  0
    0.2342   -5.6597   -3.2107 C   0  0  0  0  0  0  0  0  0  0  0  0
    0.1684   -4.3013   -3.5503 C   0  0  0  0  0  0  0  0  0  0  0  0
   -0.5389   -3.4069   -2.7487 C   0  0  0  0  0  0  0  0  0  0  0  0
   -1.2042   -3.8569   -1.5973 C   0  0  0  0  0  0  0  0  0  0  0  0
   -1.8327   -2.9184   -0.7108 N   0  0  0  0  0  0  0  0  0  0  0  0
   -1.2119   -5.2331   -1.3081 C   0  0  0  0  0  0  0  0  0  0  0  0
   -0.5009   -6.1259   -2.1143 C   0  0  0  0  0  0  0  0  0  0  0  0
    3.0848   -5.2627   -4.0980 C   0  0  0  0  0  0  0  0  0  0  0  0
    4.3163   -5.0341   -4.7162 C   0  0  0  0  0  0  0  0  0  0  0  0
    6.6433   -4.8603   -6.0604 H   0  0  0  0  0  0  0  0  0  0  0  0
    6.2981   -6.1815   -7.2294 H   0  0  0  0  0  0  0  0  0  0  0  0
    4.1947   -7.4755   -7.0791 H   0  0  0  0  0  0  0  0  0  0  0  0
    2.0267   -7.8889   -5.9871 H   0  0  0  0  0  0  0  0  0  0  0  0
    0.6758   -3.9344   -4.4269 H   0  0  0  0  0  0  0  0  0  0  0  0
   -0.5648   -2.3610   -3.0292 H   0  0  0  0  0  0  0  0  0  0  0  0
   -1.7249   -5.6106   -0.4325 H   0  0  0  0  0  0  0  0  0  0  0  0
   -0.4838   -7.1772   -1.8607 H   0  0  0  0  0  0  0  0  0  0  0  0
    2.8122   -4.6576   -3.2439 H   0  0  0  0  0  0  0  0  0  0  0  0
    4.9558   -4.2444   -4.3475 H   0  0  0  0  0  0  0  0  0  0  0  0
   -0.3227   -1.0740   -0.8131 O   0  0  0  0  0  0  0  0  0  0  0  0
   -1.4116   -1.5769   -0.4263 C   0  0  0  0  0  0  0  0  0  0  0  0
   -3.0619   -3.0625    0.0110 C   0  0  0  0  0  0  0  0  0  0  0  0
   -3.7397   -4.1197    0.0587 O   0  0  0  0  0  0  0  0  0  0  0  0
   -3.3993   -1.8187    0.6890 C   0  0  0  0  0  0  0  0  0  0  0  0
   -4.5132   -1.4664    1.4474 C   0  0  0  0  0  0  0  0  0  0  0  0
   -4.5718   -0.1591    1.9659 C   0  0  0  0  0  0  0  0  0  0  0  0
   -3.5142    0.7525    1.7330 C   0  0  0  0  0  0  0  0  0  0  0  0
   -3.5698    2.0434    2.2597 O   0  0  0  0  0  0  0  0  0  0  0  0
   -2.8290    2.4580    3.3746 C   0  0  0  0  0  0  0  0  0  0  0  0
   -2.6150    3.8413    3.5633 C   0  0  0  0  0  0  0  0  0  0  0  0
   -1.8858    4.3152    4.6682 C   0  0  0  0  0  0  0  0  0  0  0  0
   -1.3878    3.3813    5.5720 C   0  0  0  0  0  0  0  0  0  0  0  0
   -0.5781    3.5617    6.7682 C   0  0  0  0  0  0  0  0  0  0  0  0
   -0.2104    4.6701    7.2398 O   0  0  0  0  0  0  0  0  0  0  0  0
   -0.9248    1.3409    6.4990 C   0  0  0  0  0  0  0  0  0  0  0  0
   -0.8527    0.0914    6.6379 O   0  0  0  0  0  0  0  0  0  0  0  0
   -1.6001    2.0312    5.4059 C   0  0  0  0  0  0  0  0  0  0  0  0
   -2.3120    1.5334    4.3141 C   0  0  0  0  0  0  0  0  0  0  0  0
   -2.4101    0.3693    0.9506 C   0  0  0  0  0  0  0  0  0  0  0  0
   -2.3884   -0.9191    0.4311 C   0  0  0  0  0  0  0  0  0  0  0  0
   -5.3110   -2.1728    1.6290 H   0  0  0  0  0  0  0  0  0  0  0  0
   -5.4272    0.1407    2.5533 H   0  0  0  0  0  0  0  0  0  0  0  0
   -2.9822    4.5470    2.8341 H   0  0  0  0  0  0  0  0  0  0  0  0
   -1.7059    5.3745    4.8026 H   0  0  0  0  0  0  0  0  0  0  0  0
   -2.4608    0.4678    4.2003 H   0  0  0  0  0  0  0  0  0  0  0  0
   -1.6074    1.0575    0.7396 H   0  0  0  0  0  0  0  0  0  0  0  0
   -0.2877    2.2917    7.3599 N   0  0  0  0  0  0  0  0  0  0  0  0
    0.5723    2.0220    8.4805 C   0  0  0  0  0  0  0  0  0  0  0  0
    1.7523    2.7553    8.6515 C   0  0  0  0  0  0  0  0  0  0  0  0
    2.6186    2.5041    9.7310 C   0  0  0  0  0  0  0  0  0  0  0  0
    3.8893    3.1930    9.8411 N   0  0  0  0  0  0  0  0  0  0  0  0
    2.2489    1.5240   10.6691 C   0  0  0  0  0  0  0  0  0  0  0  0
    1.0853    0.7541   10.4939 C   0  0  0  0  0  0  0  0  0  0  0  0
    0.7365   -0.3313   11.4380 C   0  0  0  0  0  0  0  0  0  0  0  0
   -0.4770   -0.6315   11.6131 O   0  0  0  0  0  0  0  0  0  0  0  0
    1.7579   -1.0750   12.1226 N   0  0  0  0  0  0  0  0  0  0  0  0
    1.4499   -2.2664   12.9105 C   0  0  0  0  0  0  0  0  0  0  0  0
    1.2452   -3.4657   11.9845 C   0  0  0  0  0  0  0  0  0  0  0  0
    0.8252   -4.6825   12.7628 C   0  0  0  0  0  0  0  0  0  0  0  0
    1.7903   -5.5292   13.3305 C   0  0  0  0  0  0  0  0  0  0  0  0
    1.3972   -6.6542   14.0616 C   0  0  0  0  0  0  0  0  0  0  0  0
    0.0413   -6.9450   14.2386 C   0  0  0  0  0  0  0  0  0  0  0  0
   -0.3188   -8.0821   14.9618 O   0  0  0  0  0  0  0  0  0  0  0  0
   -0.9324   -6.0930   13.6892 C   0  0  0  0  0  0  0  0  0  0  0  0
   -2.2879   -6.3687   13.8719 O   0  0  0  0  0  0  0  0  0  0  0  0
   -0.5368   -4.9624   12.9575 C   0  0  0  0  0  0  0  0  0  0  0  0
    0.2483    1.0154    9.3980 C   0  0  0  0  0  0  0  0  0  0  0  0
    2.0070    3.4840    7.9035 H   0  0  0  0  0  0  0  0  0  0  0  0
    2.8541    1.3726   11.5494 H   0  0  0  0  0  0  0  0  0  0  0  0
    2.7633   -0.8590   11.9472 H   0  0  0  0  0  0  0  0  0  0  0  0
    0.5430   -2.0898   13.5273 H   0  0  0  0  0  0  0  0  0  0  0  0
    2.2927   -2.4724   13.6017 H   0  0  0  0  0  0  0  0  0  0  0  0
    0.4715   -3.2225   11.2229 H   0  0  0  0  0  0  0  0  0  0  0  0
    2.1890   -3.6740   11.4358 H   0  0  0  0  0  0  0  0  0  0  0  0
    2.8464   -5.3200   13.2090 H   0  0  0  0  0  0  0  0  0  0  0  0
    2.1489   -7.3053   14.4872 H   0  0  0  0  0  0  0  0  0  0  0  0
   -1.2875   -8.3409   15.1097 H   0  0  0  0  0  0  0  0  0  0  0  0
   -3.0061   -5.7666   13.4853 H   0  0  0  0  0  0  0  0  0  0  0  0
   -1.2878   -4.3091   12.5298 H   0  0  0  0  0  0  0  0  0  0  0  0
   -0.6594    0.4394    9.2594 H   0  0  0  0  0  0  0  0  0  0  0  0
    3.5849    5.1728    8.5394 O   0  0  0  0  0  0  0  0  0  0  0  0
    4.3377    4.2787    9.0109 C   0  0  0  0  0  0  0  0  0  0  0  0
    5.1217    2.6112   10.3054 C   0  0  0  0  0  0  0  0  0  0  0  0
    5.2019    1.5908   11.0379 O   0  0  0  0  0  0  0  0  0  0  0  0
    6.2673    3.2966    9.7217 C   0  0  0  0  0  0  0  0  0  0  0  0
    7.6285    3.0134    9.8040 C   0  0  0  0  0  0  0  0  0  0  0  0
    8.5006    3.7030    8.9440 C   0  0  0  0  0  0  0  0  0  0  0  0
    7.9897    4.6149    7.9882 C   0  0  0  0  0  0  0  0  0  0  0  0
    8.8161    5.1760    7.0073 O   0  0  0  0  0  0  0  0  0  0  0  0
    9.3380    4.4554    5.9181 C   0  0  0  0  0  0  0  0  0  0  0  0
    9.4233    3.0354    5.9170 C   0  0  0  0  0  0  0  0  0  0  0  0
    9.8590    2.3400    4.7797 C   0  0  0  0  0  0  0  0  0  0  0  0
   10.2099    3.0787    3.6562 C   0  0  0  0  0  0  0  0  0  0  0  0
   10.4909    2.6398    2.2985 C   0  0  0  0  0  0  0  0  0  0  0  0
   10.5893    1.4380    1.9327 O   0  0  0  0  0  0  0  0  0  0  0  0
   10.4133    4.8930    2.2853 C   0  0  0  0  0  0  0  0  0  0  0  0
   10.3828    6.0897    1.8940 O   0  0  0  0  0  0  0  0  0  0  0  0
   10.1608    4.4526    3.6521 C   0  0  0  0  0  0  0  0  0  0  0  0
    9.7421    5.1713    4.7721 C   0  0  0  0  0  0  0  0  0  0  0  0
    6.6222    4.9502    7.9992 C   0  0  0  0  0  0  0  0  0  0  0  0
    5.7877    4.2764    8.8904 C   0  0  0  0  0  0  0  0  0  0  0  0
    7.9984    2.2673   10.4907 H   0  0  0  0  0  0  0  0  0  0  0  0
    9.5593    3.4845    8.9735 H   0  0  0  0  0  0  0  0  0  0  0  0
    9.1490    2.4551    6.7799 H   0  0  0  0  0  0  0  0  0  0  0  0
    9.8810    1.2584    4.7679 H   0  0  0  0  0  0  0  0  0  0  0  0
    9.6591    6.2495    4.7328 H   0  0  0  0  0  0  0  0  0  0  0  0
    6.2163    5.6542    7.2822 H   0  0  0  0  0  0  0  0  0  0  0  0
   10.6056    3.7652    1.4182 N   0  0  0  0  0  0  0  0  0  0  0  0
   10.2810    3.7697    0.0165 C   0  0  0  0  0  0  0  0  0  0  0  0
   10.8562    4.7231   -0.8379 C   0  0  0  0  0  0  0  0  0  0  0  0
   10.4537    4.8092   -2.1761 C   0  0  0  0  0  0  0  0  0  0  0  0
    9.4660    3.9528   -2.6753 C   0  0  0  0  0  0  0  0  0  0  0  0
    9.0372    4.1107   -4.0029 O   0  0  0  0  0  0  0  0  0  0  0  0
    7.7364    3.8550   -4.4707 C   0  0  0  0  0  0  0  0  0  0  0  0
    6.6089    3.9811   -3.6403 C   0  0  0  0  0  0  0  0  0  0  0  0
    5.3322    3.6989   -4.1338 C   0  0  0  0  0  0  0  0  0  0  0  0
    5.1535    3.3106   -5.4728 C   0  0  0  0  0  0  0  0  0  0  0  0
    3.8420    2.9889   -5.9758 N   0  0  0  0  0  0  0  0  0  0  0  0
    6.2775    3.2238   -6.3087 C   0  0  0  0  0  0  0  0  0  0  0  0
    7.5552    3.5059   -5.8136 C   0  0  0  0  0  0  0  0  0  0  0  0
    8.9432    2.9498   -1.8429 C   0  0  0  0  0  0  0  0  0  0  0  0
    9.3307    2.8732   -0.5040 C   0  0  0  0  0  0  0  0  0  0  0  0
   11.6018    5.4107   -0.4604 H   0  0  0  0  0  0  0  0  0  0  0  0
   10.8833    5.5668   -2.8189 H   0  0  0  0  0  0  0  0  0  0  0  0
    6.7147    4.3048   -2.6131 H   0  0  0  0  0  0  0  0  0  0  0  0
    4.4909    3.7568   -3.4568 H   0  0  0  0  0  0  0  0  0  0  0  0
    6.1618    2.9536   -7.3497 H   0  0  0  0  0  0  0  0  0  0  0  0
    8.4084    3.4425   -6.4738 H   0  0  0  0  0  0  0  0  0  0  0  0
    8.2222    2.2389   -2.2245 H   0  0  0  0  0  0  0  0  0  0  0  0
    8.8638    2.1305    0.1267 H   0  0  0  0  0  0  0  0  0  0  0  0
    2.4399    4.4977   -4.7795 O   0  0  0  0  0  0  0  0  0  0  0  0
    2.5831    3.4529   -5.4687 C   0  0  0  0  0  0  0  0  0  0  0  0
    3.4959    1.8518   -6.7738 C   0  0  0  0  0  0  0  0  0  0  0  0
    4.3235    1.1545   -7.4182 O   0  0  0  0  0  0  0  0  0  0  0  0
    2.0578    1.6185   -6.7214 C   0  0  0  0  0  0  0  0  0  0  0  0
    1.2819    0.6244   -7.3054 C   0  0  0  0  0  0  0  0  0  0  0  0
   -0.0979    0.6230   -7.0455 C   0  0  0  0  0  0  0  0  0  0  0  0
   -0.6843    1.6209   -6.2282 C   0  0  0  0  0  0  0  0  0  0  0  0
   -2.0757    1.5934   -6.0634 O   0  0  0  0  0  0  0  0  0  0  0  0
   -2.8358    2.3656   -5.1764 C   0  0  0  0  0  0  0  0  0  0  0  0
   -4.0590    2.8911   -5.6434 C   0  0  0  0  0  0  0  0  0  0  0  0
   -4.8642    3.6893   -4.8185 C   0  0  0  0  0  0  0  0  0  0  0  0
   -4.4400    3.9154   -3.5139 C   0  0  0  0  0  0  0  0  0  0  0  0
   -5.1070    4.5981   -2.4154 C   0  0  0  0  0  0  0  0  0  0  0  0
   -6.2117    5.1970   -2.4965 O   0  0  0  0  0  0  0  0  0  0  0  0
   -3.2371    3.6551   -1.5924 C   0  0  0  0  0  0  0  0  0  0  0  0
   -2.3598    3.2392   -0.7908 O   0  0  0  0  0  0  0  0  0  0  0  0
   -3.2867    3.3508   -3.0213 C   0  0  0  0  0  0  0  0  0  0  0  0
   -2.4550    2.5676   -3.8265 C   0  0  0  0  0  0  0  0  0  0  0  0
    0.1314    2.6330   -5.6680 C   0  0  0  0  0  0  0  0  0  0  0  0
    1.5006    2.5900   -5.9227 C   0  0  0  0  0  0  0  0  0  0  0  0
    1.7280   -0.1310   -7.9363 H   0  0  0  0  0  0  0  0  0  0  0  0
   -0.7158   -0.1482   -7.4873 H   0  0  0  0  0  0  0  0  0  0  0  0
   -4.3810    2.6786   -6.6505 H   0  0  0  0  0  0  0  0  0  0  0  0
   -5.7984    4.1010   -5.1822 H   0  0  0  0  0  0  0  0  0  0  0  0
   -1.5654    2.1075   -3.4149 H   0  0  0  0  0  0  0  0  0  0  0  0
   -0.2778    3.4301   -5.0654 H   0  0  0  0  0  0  0  0  0  0  0  0
   -4.3589    4.4590   -1.2040 N   0  0  0  0  0  0  0  0  0  0  0  0
   -4.9866    4.3910    0.0798 C   0  0  0  0  0  0  0  0  0  0  0  0
   -4.8833    5.4648    0.9721 C   0  0  0  0  0  0  0  0  0  0  0  0
   -5.5525    5.4214    2.2004 C   0  0  0  0  0  0  0  0  0  0  0  0
   -6.3196    4.3039    2.5557 C   0  0  0  0  0  0  0  0  0  0  0  0
   -6.9754    4.2998    3.7979 O   0  0  0  0  0  0  0  0  0  0  0  0
   -7.4208    3.1489    4.4618 C   0  0  0  0  0  0  0  0  0  0  0  0
   -6.6382    1.9860    4.5092 C   0  0  0  0  0  0  0  0  0  0  0  0
   -7.1471    0.8143    5.0774 C   0  0  0  0  0  0  0  0  0  0  0  0
   -8.4239    0.8053    5.6528 C   0  0  0  0  0  0  0  0  0  0  0  0
   -8.9833   -0.4270    6.1340 N   0  0  0  0  0  0  0  0  0  0  0  0
   -9.1669    1.9976    5.6920 C   0  0  0  0  0  0  0  0  0  0  0  0
   -8.6625    3.1623    5.1022 C   0  0  0  0  0  0  0  0  0  0  0  0
   -6.4445    3.2405    1.6411 C   0  0  0  0  0  0  0  0  0  0  0  0
   -5.7769    3.2846    0.4155 C   0  0  0  0  0  0  0  0  0  0  0  0
   -4.2898    6.3346    0.7170 H   0  0  0  0  0  0  0  0  0  0  0  0
   -5.4606    6.2531    2.8890 H   0  0  0  0  0  0  0  0  0  0  0  0
   -5.6454    1.9863    4.0886 H   0  0  0  0  0  0  0  0  0  0  0  0
   -6.5453   -0.0861    5.0715 H   0  0  0  0  0  0  0  0  0  0  0  0
  -10.1535    2.0178    6.1306 H   0  0  0  0  0  0  0  0  0  0  0  0
   -9.2609    4.0604    5.0976 H   0  0  0  0  0  0  0  0  0  0  0  0
   -7.0683    2.3822    1.8605 H   0  0  0  0  0  0  0  0  0  0  0  0
   -5.8826    2.4613   -0.2808 H   0  0  0  0  0  0  0  0  0  0  0  0
   -8.4170   -1.8883    4.3387 O   0  0  0  0  0  0  0  0  0  0  0  0
   -9.0268   -1.6663    5.4200 C   0  0  0  0  0  0  0  0  0  0  0  0
   -9.8881   -0.6147    7.2293 C   0  0  0  0  0  0  0  0  0  0  0  0
  -10.1143    0.2463    8.1195 O   0  0  0  0  0  0  0  0  0  0  0  0
  -10.4495   -1.9655    7.1912 C   0  0  0  0  0  0  0  0  0  0  0  0
  -11.3338   -2.6181    8.0498 C   0  0  0  0  0  0  0  0  0  0  0  0
  -11.6883   -3.9496    7.7514 C   0  0  0  0  0  0  0  0  0  0  0  0
  -11.1737   -4.5942    6.6031 C   0  0  0  0  0  0  0  0  0  0  0  0
  -11.5408   -5.9239    6.3404 O   0  0  0  0  0  0  0  0  0  0  0  0
  -11.4731   -6.5065    5.0688 C   0  0  0  0  0  0  0  0  0  0  0  0
  -12.0615   -5.8665    3.9505 C   0  0  0  0  0  0  0  0  0  0  0  0
  -11.9252   -6.4099    2.6625 C   0  0  0  0  0  0  0  0  0  0  0  0
  -11.2002   -7.5905    2.5244 C   0  0  0  0  0  0  0  0  0  0  0  0
  -10.7398   -8.2787    1.3267 C   0  0  0  0  0  0  0  0  0  0  0  0
  -11.0326   -7.9544    0.1444 O   0  0  0  0  0  0  0  0  0  0  0  0
   -9.8475   -9.3383    3.1064 C   0  0  0  0  0  0  0  0  0  0  0  0
   -9.1569  -10.1134    3.8171 O   0  0  0  0  0  0  0  0  0  0  0  0
  -10.6567   -8.2364    3.6122 C   0  0  0  0  0  0  0  0  0  0  0  0
  -10.7890   -7.7266    4.9024 C   0  0  0  0  0  0  0  0  0  0  0  0
  -10.2747   -3.9030    5.7595 C   0  0  0  0  0  0  0  0  0  0  0  0
   -9.9248   -2.5988    6.0885 C   0  0  0  0  0  0  0  0  0  0  0  0
  -11.7296   -2.1211    8.9289 H   0  0  0  0  0  0  0  0  0  0  0  0
  -12.3661   -4.4830    8.4042 H   0  0  0  0  0  0  0  0  0  0  0  0
  -12.5981   -4.9361    4.0804 H   0  0  0  0  0  0  0  0  0  0  0  0
  -12.3279   -5.8972    1.7990 H   0  0  0  0  0  0  0  0  0  0  0  0
  -10.3206   -8.2186    5.7445 H   0  0  0  0  0  0  0  0  0  0  0  0
   -9.8371   -4.3724    4.8904 H   0  0  0  0  0  0  0  0  0  0  0  0
   -9.8828   -9.3751    1.6737 N   0  0  0  0  0  0  0  0  0  0  0  0
   -8.8386   -9.9269    0.8522 C   0  0  0  0  0  0  0  0  0  0  0  0
   -8.1764   -9.1308   -0.0953 C   0  0  0  0  0  0  0  0  0  0  0  0
   -7.0891   -9.6310   -0.8114 C   0  0  0  0  0  0  0  0  0  0  0  0
   -6.6628  -10.9593   -0.6191 C   0  0  0  0  0  0  0  0  0  0  0  0
   -5.5439  -11.4934   -1.2802 O   0  0  0  0  0  0  0  0  0  0  0  0
   -4.9392  -10.9718   -2.4356 C   0  0  0  0  0  0  0  0  0  0  0  0
   -5.6951  -10.4480   -3.4981 C   0  0  0  0  0  0  0  0  0  0  0  0
   -5.0562   -9.9192   -4.6240 C   0  0  0  0  0  0  0  0  0  0  0  0
   -3.6542   -9.9378   -4.7230 C   0  0  0  0  0  0  0  0  0  0  0  0
   -2.9889   -9.3531   -5.8579 N   0  0  0  0  0  0  0  0  0  0  0  0
   -2.9067  -10.5035   -3.6789 C   0  0  0  0  0  0  0  0  0  0  0  0
   -3.5440  -11.0175   -2.5460 C   0  0  0  0  0  0  0  0  0  0  0  0
   -7.3376  -11.7625    0.3090 C   0  0  0  0  0  0  0  0  0  0  0  0
   -8.4128  -11.2483    1.0437 C   0  0  0  0  0  0  0  0  0  0  0  0
   -8.4775   -8.1057   -0.2549 H   0  0  0  0  0  0  0  0  0  0  0  0
   -6.5613   -8.9664   -1.4822 H   0  0  0  0  0  0  0  0  0  0  0  0
   -6.7785  -10.4463   -3.4555 H   0  0  0  0  0  0  0  0  0  0  0  0
   -5.6612   -9.4853   -5.4121 H   0  0  0  0  0  0  0  0  0  0  0  0
   -1.8247  -10.5489   -3.7383 H   0  0  0  0  0  0  0  0  0  0  0  0
   -2.9551  -11.4449   -1.7457 H   0  0  0  0  0  0  0  0  0  0  0  0
   -7.0163  -12.7812    0.4758 H   0  0  0  0  0  0  0  0  0  0  0  0
   -8.9078  -11.8819    1.7673 H   0  0  0  0  0  0  0  0  0  0  0  0
   -1.1234   -8.3078   -4.8075 O   0  0  0  0  0  0  0  0  0  0  0  0
   -1.8183   -8.5298   -5.8334 C   0  0  0  0  0  0  0  0  0  0  0  0
   -3.4608   -9.2610   -7.2082 C   0  0  0  0  0  0  0  0  0  0  0  0
   -4.4672   -9.8676   -7.6556 O   0  0  0  0  0  0  0  0  0  0  0  0
   -2.5817   -8.3949   -7.9868 C   0  0  0  0  0  0  0  0  0  0  0  0
   -2.6309   -8.0103   -9.3250 C   0  0  0  0  0  0  0  0  0  0  0  0
   -1.6419   -7.1288   -9.7969 C   0  0  0  0  0  0  0  0  0  0  0  0
   -0.6424   -6.6310   -8.9273 C   0  0  0  0  0  0  0  0  0  0  0  0
    0.3337   -5.7698   -9.4479 O   0  0  0  0  0  0  0  0  0  0  0  0
    1.0576   -4.8346   -8.6958 C   0  0  0  0  0  0  0  0  0  0  0  0
    0.4273   -4.0244   -7.7171 C   0  0  0  0  0  0  0  0  0  0  0  0
    1.1654   -3.0741   -6.9897 C   0  0  0  0  0  0  0  0  0  0  0  0
    2.5321   -2.9774   -7.2358 C   0  0  0  0  0  0  0  0  0  0  0  0
    3.5493   -2.1156   -6.6464 C   0  0  0  0  0  0  0  0  0  0  0  0
    3.3454   -1.2851   -5.7214 O   0  0  0  0  0  0  0  0  0  0  0  0
    4.5454   -3.3548   -8.2557 C   0  0  0  0  0  0  0  0  0  0  0  0
    5.4110   -3.8725   -9.0097 O   0  0  0  0  0  0  0  0  0  0  0  0
    3.1414   -3.7403   -8.2054 C   0  0  0  0  0  0  0  0  0  0  0  0
    2.4304   -4.6726   -8.9574 C   0  0  0  0  0  0  0  0  0  0  0  0
   -0.6212   -7.0429   -7.5743 C   0  0  0  0  0  0  0  0  0  0  0  0
   -1.5924   -7.9406   -7.1449 C   0  0  0  0  0  0  0  0  0  0  0  0
   -3.4098   -8.3771   -9.9799 H   0  0  0  0  0  0  0  0  0  0  0  0
   -1.6549   -6.8172  -10.8331 H   0  0  0  0  0  0  0  0  0  0  0  0
   -0.6318   -4.1209   -7.5338 H   0  0  0  0  0  0  0  0  0  0  0  0
    0.6842   -2.4369   -6.2608 H   0  0  0  0  0  0  0  0  0  0  0  0
    2.9265   -5.2621   -9.7164 H   0  0  0  0  0  0  0  0  0  0  0  0
    0.1330   -6.6904   -6.8856 H   0  0  0  0  0  0  0  0  0  0  0  0
    4.8160   -2.3349   -7.2825 N   0  0  0  0  0  0  0  0  0  0  0  0
    6.0041   -1.5265   -7.1600 C   0  0  0  0  0  0  0  0  0  0  0  0
    6.8210   -1.2827   -8.2779 C   0  0  0  0  0  0  0  0  0  0  0  0
    7.9617   -0.4900   -8.1615 C   0  0  0  0  0  0  0  0  0  0  0  0
    8.3159    0.0724   -6.9337 C   0  0  0  0  0  0  0  0  0  0  0  0
    9.4637    0.8762   -6.8780 O   0  0  0  0  0  0  0  0  0  0  0  0
   10.2862    1.0773   -5.7600 C   0  0  0  0  0  0  0  0  0  0  0  0
   11.0463    2.2507   -5.6985 C   0  0  0  0  0  0  0  0  0  0  0  0
   11.8939    2.4944   -4.6148 C   0  0  0  0  0  0  0  0  0  0  0  0
   12.0029    1.5575   -3.5749 C   0  0  0  0  0  0  0  0  0  0  0  0
   12.8717    1.8129   -2.4580 N   0  0  0  0  0  0  0  0  0  0  0  0
   11.2633    0.3657   -3.6480 C   0  0  0  0  0  0  0  0  0  0  0  0
   10.4187    0.1229   -4.7368 C   0  0  0  0  0  0  0  0  0  0  0  0
    7.4888   -0.1400   -5.8187 C   0  0  0  0  0  0  0  0  0  0  0  0
    6.3513   -0.9459   -5.9279 C   0  0  0  0  0  0  0  0  0  0  0  0
    6.5665   -1.6779   -9.2528 H   0  0  0  0  0  0  0  0  0  0  0  0
    8.5778   -0.3067   -9.0331 H   0  0  0  0  0  0  0  0  0  0  0  0
   10.9724    2.9823   -6.4932 H   0  0  0  0  0  0  0  0  0  0  0  0
   12.4425    3.4264   -4.5742 H   0  0  0  0  0  0  0  0  0  0  0  0
   11.3705   -0.3927   -2.8865 H   0  0  0  0  0  0  0  0  0  0  0  0
    9.8971   -0.8219   -4.7918 H   0  0  0  0  0  0  0  0  0  0  0  0
    7.7089    0.3289   -4.8675 H   0  0  0  0  0  0  0  0  0  0  0  0
    5.7532   -1.1237   -5.0452 H   0  0  0  0  0  0  0  0  0  0  0  0
   11.6749    0.8149   -0.6588 O   0  0  0  0  0  0  0  0  0  0  0  0
   12.6893    1.4170   -1.0954 C   0  0  0  0  0  0  0  0  0  0  0  0
   14.1808    2.3910   -2.4914 C   0  0  0  0  0  0  0  0  0  0  0  0
   14.7558    2.7934   -3.5370 O   0  0  0  0  0  0  0  0  0  0  0  0
   14.7749    2.3592   -1.1594 C   0  0  0  0  0  0  0  0  0  0  0  0
   16.0517    2.7119   -0.7269 C   0  0  0  0  0  0  0  0  0  0  0  0
   16.3849    2.4671    0.6172 C   0  0  0  0  0  0  0  0  0  0  0  0
   15.4412    1.9003    1.5041 C   0  0  0  0  0  0  0  0  0  0  0  0
   15.8236    1.6414    2.8254 O   0  0  0  0  0  0  0  0  0  0  0  0
   14.9471    1.7481    3.9082 C   0  0  0  0  0  0  0  0  0  0  0  0
   14.3677    2.9981    4.2329 C   0  0  0  0  0  0  0  0  0  0  0  0
   13.5305    3.1296    5.3538 C   0  0  0  0  0  0  0  0  0  0  0  0
   13.2780    1.9916    6.1140 C   0  0  0  0  0  0  0  0  0  0  0  0
   12.4030    1.7963    7.2596 C   0  0  0  0  0  0  0  0  0  0  0  0
   11.7888    2.7149    7.8648 O   0  0  0  0  0  0  0  0  0  0  0  0
   13.2078   -0.2201    6.6729 C   0  0  0  0  0  0  0  0  0  0  0  0
   13.4217   -1.4621    6.6276 O   0  0  0  0  0  0  0  0  0  0  0  0
   13.7952    0.7649    5.7728 C   0  0  0  0  0  0  0  0  0  0  0  0
   14.6553    0.6110    4.6866 C   0  0  0  0  0  0  0  0  0  0  0  0
   14.1527    1.5558    1.0372 C   0  0  0  0  0  0  0  0  0  0  0  0
   13.8601    1.7809   -0.3066 C   0  0  0  0  0  0  0  0  0  0  0  0
   16.7779    3.1355   -1.4080 H   0  0  0  0  0  0  0  0  0  0  0  0
   17.3761    2.7128    0.9779 H   0  0  0  0  0  0  0  0  0  0  0  0
   14.5812    3.8656    3.6246 H   0  0  0  0  0  0  0  0  0  0  0  0
   13.0772    4.0789    5.6034 H   0  0  0  0  0  0  0  0  0  0  0  0
   15.0663   -0.3570    4.4378 H   0  0  0  0  0  0  0  0  0  0  0  0
   13.4307    1.0764    1.6863 H   0  0  0  0  0  0  0  0  0  0  0  0
   12.3160    0.4085    7.6054 N   0  0  0  0  0  0  0  0  0  0  0  0
   11.0946   -0.1733    8.0852 C   0  0  0  0  0  0  0  0  0  0  0  0
   10.6048    0.1723    9.3559 C   0  0  0  0  0  0  0  0  0  0  0  0
    9.3100   -0.2007    9.7367 C   0  0  0  0  0  0  0  0  0  0  0  0
    8.4775   -0.8621    8.8240 C   0  0  0  0  0  0  0  0  0  0  0  0
    7.1079   -0.9840    9.0862 O   0  0  0  0  0  0  0  0  0  0  0  0
    6.1362   -0.3552    8.2882 C   0  0  0  0  0  0  0  0  0  0  0  0
    6.4779    0.6945    7.4177 C   0  0  0  0  0  0  0  0  0  0  0  0
    5.5141    1.3046    6.6243 C   0  0  0  0  0  0  0  0  0  0  0  0
    4.1822    0.8842    6.6824 C   0  0  0  0  0  0  0  0  0  0  0  0
    3.1945    1.5110    5.8497 N   0  0  0  0  0  0  0  0  0  0  0  0
    3.8255   -0.1528    7.5611 C   0  0  0  0  0  0  0  0  0  0  0  0
    4.7971   -0.7634    8.3660 C   0  0  0  0  0  0  0  0  0  0  0  0
    9.0003   -1.2997    7.5985 C   0  0  0  0  0  0  0  0  0  0  0  0
   10.3033   -0.9584    7.2307 C   0  0  0  0  0  0  0  0  0  0  0  0
   11.2071    0.7759   10.0231 H   0  0  0  0  0  0  0  0  0  0  0  0
    8.9235    0.1039   10.7005 H   0  0  0  0  0  0  0  0  0  0  0  0
    7.4913    1.0526    7.3586 H   0  0  0  0  0  0  0  0  0  0  0  0
    5.8148    2.1027    5.9585 H   0  0  0  0  0  0  0  0  0  0  0  0
    2.7923   -0.4721    7.6319 H   0  0  0  0  0  0  0  0  0  0  0  0
    4.5139   -1.5578    9.0444 H   0  0  0  0  0  0  0  0  0  0  0  0
    8.3672   -1.8325    6.8991 H   0  0  0  0  0  0  0  0  0  0  0  0
   10.6592   -1.2261    6.2437 H   0  0  0  0  0  0  0  0  0  0  0  0
    3.8406    3.8016    5.9858 O   0  0  0  0  0  0  0  0  0  0  0  0
    3.1405    2.8912    5.4714 C   0  0  0  0  0  0  0  0  0  0  0  0
    2.3066    0.8589    4.9358 C   0  0  0  0  0  0  0  0  0  0  0  0
    2.1154   -0.3857    4.8934 O   0  0  0  0  0  0  0  0  0  0  0  0
    1.7023    1.8417    4.0384 C   0  0  0  0  0  0  0  0  0  0  0  0
    0.8194    1.6899    2.9717 C   0  0  0  0  0  0  0  0  0  0  0  0
    0.4065    2.8495    2.2897 C   0  0  0  0  0  0  0  0  0  0  0  0
    0.8636    4.1307    2.6932 C   0  0  0  0  0  0  0  0  0  0  0  0
    0.3839    5.2964    2.0854 O   0  0  0  0  0  0  0  0  0  0  0  0
    0.1383    5.4159    0.7142 C   0  0  0  0  0  0  0  0  0  0  0  0
    0.9859    4.7923   -0.2376 C   0  0  0  0  0  0  0  0  0  0  0  0
    0.7742    4.9797   -1.6113 C   0  0  0  0  0  0  0  0  0  0  0  0
   -0.2931    5.7825   -2.0056 C   0  0  0  0  0  0  0  0  0  0  0  0
   -0.7569    6.1609   -3.3331 C   0  0  0  0  0  0  0  0  0  0  0  0
   -0.1455    5.9281   -4.4079 O   0  0  0  0  0  0  0  0  0  0  0  0
   -2.1717    7.0764   -1.8258 C   0  0  0  0  0  0  0  0  0  0  0  0
   -3.1605    7.6586   -1.3083 O   0  0  0  0  0  0  0  0  0  0  0  0
   -1.1361    6.3649   -1.0878 C   0  0  0  0  0  0  0  0  0  0  0  0
   -0.9406    6.2098    0.2818 C   0  0  0  0  0  0  0  0  0  0  0  0
    1.7781    4.2449    3.7534 C   0  0  0  0  0  0  0  0  0  0  0  0
    2.1904    3.0798    4.3912 C   0  0  0  0  0  0  0  0  0  0  0  0
    0.4422    0.7129    2.6875 H   0  0  0  0  0  0  0  0  0  0  0  0
   -0.2982    2.7609    1.4759 H   0  0  0  0  0  0  0  0  0  0  0  0
    1.8298    4.1947    0.0832 H   0  0  0  0  0  0  0  0  0  0  0  0
    1.4233    4.5128   -2.3384 H   0  0  0  0  0  0  0  0  0  0  0  0
   -1.6050    6.6830    0.9928 H   0  0  0  0  0  0  0  0  0  0  0  0
    2.1475    5.2135    4.0669 H   0  0  0  0  0  0  0  0  0  0  0  0
   -1.9460    6.9535   -3.2363 N   0  0  0  0  0  0  0  0  0  0  0  0
   -2.8577    7.2947   -4.2980 C   0  0  0  0  0  0  0  0  0  0  0  0
   -2.9416    6.4920   -5.4439 C   0  0  0  0  0  0  0  0  0  0  0  0
   -3.8422    6.7996   -6.4721 C   0  0  0  0  0  0  0  0  0  0  0  0
   -3.9297    5.9590   -7.6362 N   0  0  0  0  0  0  0  0  0  0  0  0
   -4.6941    7.9052   -6.3337 C   0  0  0  0  0  0  0  0  0  0  0  0
   -4.6224    8.7297   -5.1960 C   0  0  0  0  0  0  0  0  0  0  0  0
   -5.5491    9.8766   -5.0080 C   0  0  0  0  0  0  0  0  0  0  0  0
   -5.6401   10.4164   -3.8715 O   0  0  0  0  0  0  0  0  0  0  0  0
   -6.3614   10.3725   -6.0840 N   0  0  0  0  0  0  0  0  0  0  0  0
   -7.5515   11.1841   -5.8376 C   0  0  0  0  0  0  0  0  0  0  0  0
   -8.6478   10.3387   -5.1803 C   0  0  0  0  0  0  0  0  0  0  0  0
   -9.8695   11.1688   -4.8977 C   0  0  0  0  0  0  0  0  0  0  0  0
  -10.9255   11.2166   -5.8191 C   0  0  0  0  0  0  0  0  0  0  0  0
  -12.0528   12.0022   -5.5605 C   0  0  0  0  0  0  0  0  0  0  0  0
  -12.1319   12.7606   -4.3859 C   0  0  0  0  0  0  0  0  0  0  0  0
  -13.2686   13.5341   -4.1544 O   0  0  0  0  0  0  0  0  0  0  0  0
  -11.0709   12.7298   -3.4646 C   0  0  0  0  0  0  0  0  0  0  0  0
  -11.1399   13.4839   -2.2964 O   0  0  0  0  0  0  0  0  0  0  0  0
   -9.9429   11.9373   -3.7258 C   0  0  0  0  0  0  0  0  0  0  0  0
   -3.6897    8.4194   -4.1904 C   0  0  0  0  0  0  0  0  0  0  0  0
   -2.3527    5.5891   -5.5102 H   0  0  0  0  0  0  0  0  0  0  0  0
   -5.4130    8.1023   -7.1164 H   0  0  0  0  0  0  0  0  0  0  0  0
   -6.0755   10.2072   -7.0748 H   0  0  0  0  0  0  0  0  0  0  0  0
   -7.2849   12.0501   -5.1895 H   0  0  0  0  0  0  0  0  0  0  0  0
   -7.9270   11.5826   -6.8055 H   0  0  0  0  0  0  0  0  0  0  0  0
   -8.2750    9.9079   -4.2267 H   0  0  0  0  0  0  0  0  0  0  0  0
   -8.9082    9.4833   -5.8443 H   0  0  0  0  0  0  0  0  0  0  0  0
  -10.8743   10.6509   -6.7410 H   0  0  0  0  0  0  0  0  0  0  0  0
  -12.8630   12.0291   -6.2787 H   0  0  0  0  0  0  0  0  0  0  0  0
  -13.3679   14.1106   -3.3280 H   0  0  0  0  0  0  0  0  0  0  0  0
  -10.3892   13.4804   -1.6155 H   0  0  0  0  0  0  0  0  0  0  0  0
   -9.1221   11.9246   -3.0206 H   0  0  0  0  0  0  0  0  0  0  0  0
   -3.6049    9.0601   -3.3222 H   0  0  0  0  0  0  0  0  0  0  0  0
   -1.6493    5.3494   -7.9810 O   0  0  0  0  0  0  0  0  0  0  0  0
   -2.8780    5.1484   -8.1794 C   0  0  0  0  0  0  0  0  0  0  0  0
   -5.1275    5.3443   -8.1229 C   0  0  0  0  0  0  0  0  0  0  0  0
   -6.2924    5.7020   -7.8029 O   0  0  0  0  0  0  0  0  0  0  0  0
   -4.8044    4.1822   -8.9413 C   0  0  0  0  0  0  0  0  0  0  0  0
   -5.6357    3.1917   -9.4611 C   0  0  0  0  0  0  0  0  0  0  0  0
   -5.0359    2.0523  -10.0232 C   0  0  0  0  0  0  0  0  0  0  0  0
   -3.6283    1.9156  -10.0341 C   0  0  0  0  0  0  0  0  0  0  0  0
   -3.0491    0.7314  -10.4966 O   0  0  0  0  0  0  0  0  0  0  0  0
   -3.1300   -0.4744   -9.7857 C   0  0  0  0  0  0  0  0  0  0  0  0
   -2.9248   -1.6924  -10.4733 C   0  0  0  0  0  0  0  0  0  0  0  0
   -3.0210   -2.9243   -9.7981 C   0  0  0  0  0  0  0  0  0  0  0  0
   -3.2819   -2.9023   -8.4305 C   0  0  0  0  0  0  0  0  0  0  0  0
   -3.4552   -3.9864   -7.4723 C   0  0  0  0  0  0  0  0  0  0  0  0
   -3.4969   -5.2091   -7.7667 O   0  0  0  0  0  0  0  0  0  0  0  0
   -3.6541   -2.0375   -6.3415 C   0  0  0  0  0  0  0  0  0  0  0  0
   -3.7303   -1.1927   -5.4103 O   0  0  0  0  0  0  0  0  0  0  0  0
   -3.4394   -1.7192   -7.7471 C   0  0  0  0  0  0  0  0  0  0  0  0
   -3.3959   -0.4910   -8.3976 C   0  0  0  0  0  0  0  0  0  0  0  0
   -2.8103    2.9400   -9.5222 C   0  0  0  0  0  0  0  0  0  0  0  0
   -3.4323    4.0612   -8.9735 C   0  0  0  0  0  0  0  0  0  0  0  0
   -6.7115    3.2736   -9.3911 H   0  0  0  0  0  0  0  0  0  0  0  0
   -5.6569    1.2539  -10.4091 H   0  0  0  0  0  0  0  0  0  0  0  0
   -2.7087   -1.6824  -11.5369 H   0  0  0  0  0  0  0  0  0  0  0  0
   -2.8918   -3.8606  -10.3236 H   0  0  0  0  0  0  0  0  0  0  0  0
   -3.5530    0.4242   -7.8436 H   0  0  0  0  0  0  0  0  0  0  0  0
   -1.7343    2.8210   -9.4788 H   0  0  0  0  0  0  0  0  0  0  0  0
   -3.6660   -3.4575   -6.1544 N   0  0  0  0  0  0  0  0  0  0  0  0
   -3.9395   -4.1959   -4.9452 C   0  0  0  0  0  0  0  0  0  0  0  0
   -3.4266   -5.4904   -4.7683 C   0  0  0  0  0  0  0  0  0  0  0  0
   -3.7487   -6.2385   -3.6326 C   0  0  0  0  0  0  0  0  0  0  0  0
   -4.5689   -5.7029   -2.6364 C   0  0  0  0  0  0  0  0  0  0  0  0
   -4.8410   -6.5019   -1.5110 O   0  0  0  0  0  0  0  0  0  0  0  0
   -5.8086   -6.2607   -0.5240 C   0  0  0  0  0  0  0  0  0  0  0  0
   -5.5095   -6.6191    0.7942 C   0  0  0  0  0  0  0  0  0  0  0  0
   -6.4218   -6.3692    1.8206 C   0  0  0  0  0  0  0  0  0  0  0  0
   -7.6560   -5.7724    1.5342 C   0  0  0  0  0  0  0  0  0  0  0  0
   -8.5789   -5.4949    2.5875 N   0  0  0  0  0  0  0  0  0  0  0  0
   -7.9768   -5.4472    0.2093 C   0  0  0  0  0  0  0  0  0  0  0  0
   -7.0680   -5.7097   -0.8202 C   0  0  0  0  0  0  0  0  0  0  0  0
   -5.0305   -4.3796   -2.7747 C   0  0  0  0  0  0  0  0  0  0  0  0
   -4.7351   -3.6439   -3.9260 C   0  0  0  0  0  0  0  0  0  0  0  0
   -2.7605   -5.9192   -5.5017 H   0  0  0  0  0  0  0  0  0  0  0  0
   -3.3477   -7.2365   -3.5120 H   0  0  0  0  0  0  0  0  0  0  0  0
   -4.5531   -7.0698    1.0230 H   0  0  0  0  0  0  0  0  0  0  0  0
   -6.1644   -6.6344    2.8379 H   0  0  0  0  0  0  0  0  0  0  0  0
   -9.4667   -4.9837    2.3908 H   0  0  0  0  0  0  0  0  0  0  0  0
   -8.3754   -5.7846    3.5701 H   0  0  0  0  0  0  0  0  0  0  0  0
   -8.9415   -5.0165   -0.0263 H   0  0  0  0  0  0  0  0  0  0  0  0
   -7.3529   -5.4983   -1.8445 H   0  0  0  0  0  0  0  0  0  0  0  0
   -5.5996   -3.8988   -1.9928 H   0  0  0  0  0  0  0  0  0  0  0  0
   -5.1520   -2.6512   -4.0183 H   0  0  0  0  0  0  0  0  0  0  0  0
  1  2  1  0
  2  3  1  0
  3  4  2  0
  4  5  1  0
  5  6  1  0
  6  7  1  0
  7  8  1  0
  8  9  2  0
  9 10  1  0
 10 11  1  0
 10 12  2  0
 12 13  1  0
  5 14  2  0
 14 15  1  0
 15  2  2  0
 13  7  2  0
  1 16  1  0
  1 17  1  0
  3 18  1  0
  4 19  1  0
  8 20  1  0
  9 21  1  0
 12 22  1  0
 13 23  1  0
 14 24  1  0
 15 25  1  0
 26 27  2  0
 28 29  2  0
 28 30  1  0
 30 31  1  0
 31 32  2  0
 32 33  1  0
 33 34  1  0
 34 35  1  0
 35 36  1  0
 36 37  2  0
 37 38  1  0
 38 39  1  0
 39 40  2  0
 41 42  2  0
 41 43  1  0
 43 44  1  0
 33 45  2  0
 45 46  1  0
 46 27  1  0
 46 30  2  0
 44 35  2  0
 43 38  2  0
 31 47  1  0
 32 48  1  0
 36 49  1  0
 37 50  1  0
 44 51  1  0
 45 52  1  0
 53 54  1  0
 54 55  2  0
 55 56  1  0
 56 57  1  0
 56 58  2  0
 58 59  1  0
 59 60  1  0
 60 61  2  0
 60 62  1  0
 62 63  1  0
 63 64  1  0
 64 65  1  0
 65 66  1  0
 66 67  2  0
 67 68  1  0
 68 69  1  0
 68 70  2  0
 70 71  1  0
 70 72  1  0
 59 73  2  0
 73 54  1  0
 72 65  2  0
 55 74  1  0
 58 75  1  0
 62 76  1  0
 63 77  1  0
 63 78  1  0
 64 79  1  0
 64 80  1  0
 66 81  1  0
 67 82  1  0
 69 83  1  0
 71 84  1  0
 72 85  1  0
 73 86  1  0
 87 88  2  0
 89 90  2  0
 89 91  1  0
 91 92  1  0
 92 93  2  0
 93 94  1  0
 94 95  1  0
 95 96  1  0
 96 97  1  0
 97 98  2  0
 98 99  1  0
 99100  1  0
100101  2  0
102103  2  0
102104  1  0
104105  1  0
 94106  2  0
106107  1  0
107 88  1  0
107 91  2  0
105 96  2  0
104 99  2  0
 92108  1  0
 93109  1  0
 97110  1  0
 98111  1  0
105112  1  0
106113  1  0
114115  1  0
115116  1  0
116117  2  0
117118  1  0
118119  1  0
119120  1  0
120121  1  0
121122  2  0
122123  1  0
123124  1  0
123125  2  0
125126  1  0
118127  2  0
127128  1  0
128115  2  0
126120  2  0
116129  1  0
117130  1  0
121131  1  0
122132  1  0
125133  1  0
126134  1  0
127135  1  0
128136  1  0
137138  2  0
139140  2  0
139141  1  0
141142  1  0
142143  2  0
143144  1  0
144145  1  0
145146  1  0
146147  1  0
147148  2  0
148149  1  0
149150  1  0
150151  2  0
152153  2  0
152154  1  0
154155  1  0
144156  2  0
156157  1  0
157138  1  0
157141  2  0
155146  2  0
154149  2  0
142158  1  0
143159  1  0
147160  1  0
148161  1  0
155162  1  0
156163  1  0
164165  1  0
165166  1  0
166167  2  0
167168  1  0
168169  1  0
169170  1  0
170171  1  0
171172  2  0
172173  1  0
173174  1  0
173175  2  0
175176  1  0
168177  2  0
177178  1  0
178165  2  0
176170  2  0
166179  1  0
167180  1  0
171181  1  0
172182  1  0
175183  1  0
176184  1  0
177185  1  0
178186  1  0
187188  2  0
189190  2  0
189191  1  0
191192  1  0
192193  2  0
193194  1  0
194195  1  0
195196  1  0
196197  1  0
197198  2  0
198199  1  0
199200  1  0
200201  2  0
202203  2  0
202204  1  0
204205  1  0
194206  2  0
206207  1  0
207188  1  0
207191  2  0
205196  2  0
204199  2  0
192208  1  0
193209  1  0
197210  1  0
198211  1  0
205212  1  0
206213  1  0
214215  1  0
215216  1  0
216217  2  0
217218  1  0
218219  1  0
219220  1  0
220221  1  0
221222  2  0
222223  1  0
223224  1  0
223225  2  0
225226  1  0
218227  2  0
227228  1  0
228215  2  0
226220  2  0
216229  1  0
217230  1  0
221231  1  0
222232  1  0
225233  1  0
226234  1  0
227235  1  0
228236  1  0
237238  2  0
239240  2  0
239241  1  0
241242  1  0
242243  2  0
243244  1  0
244245  1  0
245246  1  0
246247  1  0
247248  2  0
248249  1  0
249250  1  0
250251  2  0
252253  2  0
252254  1  0
254255  1  0
244256  2  0
256257  1  0
257238  1  0
257241  2  0
255246  2  0
254249  2  0
242258  1  0
243259  1  0
247260  1  0
248261  1  0
255262  1  0
256263  1  0
264265  1  0
265266  1  0
266267  2  0
267268  1  0
268269  1  0
269270  1  0
270271  1  0
271272  2  0
272273  1  0
273274  1  0
273275  2  0
275276  1  0
268277  2  0
277278  1  0
278265  2  0
276270  2  0
266279  1  0
267280  1  0
271281  1  0
272282  1  0
275283  1  0
276284  1  0
277285  1  0
278286  1  0
287288  2  0
289290  2  0
289291  1  0
291292  1  0
292293  2  0
293294  1  0
294295  1  0
295296  1  0
296297  1  0
297298  2  0
298299  1  0
299300  1  0
300301  2  0
302303  2  0
302304  1  0
304305  1  0
294306  2  0
306307  1  0
307288  1  0
307291  2  0
305296  2  0
304299  2  0
292308  1  0
293309  1  0
297310  1  0
298311  1  0
305312  1  0
306313  1  0
314315  1  0
315316  1  0
316317  2  0
317318  1  0
318319  1  0
319320  1  0
320321  1  0
321322  2  0
322323  1  0
323324  1  0
323325  2  0
325326  1  0
318327  2  0
327328  1  0
328315  2  0
326320  2  0
316329  1  0
317330  1  0
321331  1  0
322332  1  0
325333  1  0
326334  1  0
327335  1  0
328336  1  0
337338  2  0
339340  2  0
339341  1  0
341342  1  0
342343  2  0
343344  1  0
344345  1  0
345346  1  0
346347  1  0
347348  2  0
348349  1  0
349350  1  0
350351  2  0
352353  2  0
352354  1  0
354355  1  0
344356  2  0
356357  1  0
357338  1  0
357341  2  0
355346  2  0
354349  2  0
342358  1  0
343359  1  0
347360  1  0
348361  1  0
355362  1  0
356363  1  0
364365  1  0
365366  1  0
366367  2  0
367368  1  0
367369  1  0
369370  2  0
370371  1  0
371372  2  0
371373  1  0
373374  1  0
374375  1  0
375376  1  0
376377  1  0
377378  2  0
378379  1  0
379380  1  0
379381  2  0
381382  1  0
381383  1  0
370384  1  0
384365  2  0
383376  2  0
366385  1  0
369386  1  0
373387  1  0
374388  1  0
374389  1  0
375390  1  0
375391  1  0
377392  1  0
378393  1  0
380394  1  0
382395  1  0
383396  1  0
384397  1  0
398399  2  0
400401  2  0
400402  1  0
402403  1  0
403404  2  0
404405  1  0
405406  1  0
406407  1  0
407408  1  0
408409  2  0
409410  1  0
410411  1  0
411412  2  0
413414  2  0
413415  1  0
415416  1  0
405417  2  0
417418  1  0
418399  1  0
418402  2  0
416407  2  0
415410  2  0
403419  1  0
404420  1  0
408421  1  0
409422  1  0
416423  1  0
417424  1  0
425426  1  0
426427  1  0
427428  2  0
428429  1  0
429430  1  0
430431  1  0
431432  1  0
432433  2  0
433434  1  0
434435  1  0
434436  2  0
436437  1  0
429438  2  0
438439  1  0
439426  2  0
437431  2  0
427440  1  0
428441  1  0
432442  1  0
433443  1  0
435444  1  0
435445  1  0
436446  1  0
437447  1  0
438448  1  0
439449  1  0
 11 27  1  0
 11 28  1  0
 53 39  1  0
 53 41  1  0
 57 88  1  0
 57 89  1  0
114100  1  0
114102  1  0
124138  1  0
124139  1  0
164150  1  0
164152  1  0
174188  1  0
174189  1  0
214200  1  0
214202  1  0
224238  1  0
224239  1  0
264250  1  0
264252  1  0
274288  1  0
274289  1  0
314300  1  0
314302  1  0
324338  1  0
324339  1  0
364350  1  0
364352  1  0
368399  1  0
368400  1  0
425411  1  0
425413  1  0
M  END
$$$$
