DABA_DA
     RDKit          3D

 38 39  0  0  0  0  0  0  0  0999 V2000
   -3.2586    3.5189   -0.5947 N   0  0  0  0  0  0  0  0  0  0  0  0
   -3.1927    2.1018   -0.4120 C   0  0  0  0  0  0  0  0  0  0  0  0
   -4.1594    1.4476    0.3619 C   0  0  0  0  0  0  0  0  0  0  0  0
   -4.1070    0.0587    0.5331 C   0  0  0  0  0  0  0  0  0  0  0  0
   -5.0988   -0.6058    1.3208 N   0  0  0  0  0  0  0  0  0  0  0  0
   -3.0776   -0.6767   -0.0701 C   0  0  0  0  0  0  0  0  0  0  0  0
   -2.0918   -0.0329   -0.8389 C   0  0  0  0  0  0  0  0  0  0  0  0
   -1.0100   -0.8290   -1.4659 C   0  0  0  0  0  0  0  0  0  0  0  0
   -1.2215   -2.0403   -1.7484 O   0  0  0  0  0  0  0  0  0  0  0  0
    0.2792   -0.2517   -1.7334 N   0  0  0  0  0  0  0  0  0  0  0  0
    1.3750   -1.0177   -2.3271 C   0  0  0  0  0  0  0  0  0  0  0  0
    1.9770   -2.0019   -1.3164 C   0  0  0  0  0  0  0  0  0  0  0  0
    2.5075   -1.2866   -0.1007 C   0  0  0  0  0  0  0  0  0  0  0  0
    1.7066   -1.1436    1.0432 C   0  0  0  0  0  0  0  0  0  0  0  0
    2.1852   -0.4472    2.1557 C   0  0  0  0  0  0  0  0  0  0  0  0
    3.4636    0.1202    2.1385 C   0  0  0  0  0  0  0  0  0  0  0  0
    3.9146    0.8091    3.2638 O   0  0  0  0  0  0  0  0  0  0  0  0
    4.2690   -0.0089    0.9937 C   0  0  0  0  0  0  0  0  0  0  0  0
    5.5420    0.5586    0.9677 O   0  0  0  0  0  0  0  0  0  0  0  0
    3.7863   -0.7081   -0.1223 C   0  0  0  0  0  0  0  0  0  0  0  0
   -2.1646    1.3613   -1.0121 C   0  0  0  0  0  0  0  0  0  0  0  0
   -2.5443    4.0181   -1.1705 H   0  0  0  0  0  0  0  0  0  0  0  0
   -4.0217    4.0801   -0.1546 H   0  0  0  0  0  0  0  0  0  0  0  0
   -4.9543    2.0181    0.8265 H   0  0  0  0  0  0  0  0  0  0  0  0
   -5.8700   -0.0675    1.7752 H   0  0  0  0  0  0  0  0  0  0  0  0
   -5.0696   -1.6411    1.4558 H   0  0  0  0  0  0  0  0  0  0  0  0
   -3.0401   -1.7500    0.0731 H   0  0  0  0  0  0  0  0  0  0  0  0
    0.4780    0.7351   -1.4568 H   0  0  0  0  0  0  0  0  0  0  0  0
    2.1680   -0.3182   -2.6719 H   0  0  0  0  0  0  0  0  0  0  0  0
    1.0075   -1.5697   -3.2190 H   0  0  0  0  0  0  0  0  0  0  0  0
    2.8024   -2.5615   -1.8078 H   0  0  0  0  0  0  0  0  0  0  0  0
    1.2158   -2.7548   -1.0190 H   0  0  0  0  0  0  0  0  0  0  0  0
    0.7102   -1.5672    1.0719 H   0  0  0  0  0  0  0  0  0  0  0  0
    1.5595   -0.3450    3.0333 H   0  0  0  0  0  0  0  0  0  0  0  0
    4.8316    1.2380    3.3004 H   0  0  0  0  0  0  0  0  0  0  0  0
    6.1415    0.4804    0.1545 H   0  0  0  0  0  0  0  0  0  0  0  0
    4.4053   -0.7984   -1.0067 H   0  0  0  0  0  0  0  0  0  0  0  0
   -1.4440    1.8776   -1.6324 H   0  0  0  0  0  0  0  0  0  0  0  0
  1  2  1  0
  2  3  1  0
  3  4  2  0
  4  5  1  0
  4  6  1  0
  6  7  2  0
  7  8  1  0
  8  9  2  0
  8 10  1  0
 10 11  1  0
 11 12  1  0
 12 13  1  0
 13 14  1  0
 14 15  2  0
 15 16  1  0
 16 17  1  0
 16 18  2  0
 18 19  1  0
 18 20  1  0
  7 21  1  0
 21  2  2  0
 20 13  2  0
  1 22  1  0
  1 23  1  0
  3 24  1  0
  5 25  1  0
  5 26  1  0
  6 27  1  0
 10 28  1  0
 11 29  1  0
 11 30  1  0
 12 31  1  0
 12 32  1  0
 14 33  1  0
 15 34  1  0
 17 35  1  0
 19 36  1  0
 20 37  1  0
 21 38  1  0
M  END
>  <baseline_role>  (1) 
catechol-bearing diamine

>  <canonical_smiles>  (1) 
Nc1cc(N)cc(C(=O)NCCc2ccc(O)c(O)c2)c1

$$$$
