DOPAMINE
     RDKit          3D

 22 22  0  0  0  0  0  0  0  0999 V2000
    2.5998   -1.1072    0.5324 N   0  0  0  0  0  0  0  0  0  0  0  0
    2.6043    0.0311   -0.3832 C   0  0  0  0  0  0  0  0  0  0  0  0
    1.4285   -0.0509   -1.3626 C   0  0  0  0  0  0  0  0  0  0  0  0
    0.1059    0.1424   -0.6659 C   0  0  0  0  0  0  0  0  0  0  0  0
   -0.3431    1.4344   -0.3506 C   0  0  0  0  0  0  0  0  0  0  0  0
   -1.5570    1.6154    0.3176 C   0  0  0  0  0  0  0  0  0  0  0  0
   -2.3327    0.5073    0.6842 C   0  0  0  0  0  0  0  0  0  0  0  0
   -3.5439    0.6832    1.3508 O   0  0  0  0  0  0  0  0  0  0  0  0
   -1.8876   -0.7861    0.3810 C   0  0  0  0  0  0  0  0  0  0  0  0
   -2.6590   -1.8863    0.7511 O   0  0  0  0  0  0  0  0  0  0  0  0
   -0.6696   -0.9667   -0.2904 C   0  0  0  0  0  0  0  0  0  0  0  0
    1.8522   -0.9515    1.2471 H   0  0  0  0  0  0  0  0  0  0  0  0
    3.5064   -1.0993    1.0534 H   0  0  0  0  0  0  0  0  0  0  0  0
    2.5691    0.9860    0.1880 H   0  0  0  0  0  0  0  0  0  0  0  0
    3.5490    0.0199   -0.9700 H   0  0  0  0  0  0  0  0  0  0  0  0
    1.4528   -1.0292   -1.8911 H   0  0  0  0  0  0  0  0  0  0  0  0
    1.5511    0.7366   -2.1379 H   0  0  0  0  0  0  0  0  0  0  0  0
    0.2483    2.3004   -0.6214 H   0  0  0  0  0  0  0  0  0  0  0  0
   -1.8930    2.6174    0.5522 H   0  0  0  0  0  0  0  0  0  0  0  0
   -3.8913    1.6061    1.5840 H   0  0  0  0  0  0  0  0  0  0  0  0
   -2.3635   -2.8338    0.5466 H   0  0  0  0  0  0  0  0  0  0  0  0
   -0.3268   -1.9692   -0.5155 H   0  0  0  0  0  0  0  0  0  0  0  0
  1  2  1  0
  2  3  1  0
  3  4  1  0
  4  5  1  0
  5  6  2  0
  6  7  1  0
  7  8  1  0
  7  9  2  0
  9 10  1  0
  9 11  1  0
 11  4  2  0
  1 12  1  0
  1 13  1  0
  2 14  1  0
  2 15  1  0
  3 16  1  0
  3 17  1  0
  5 18  1  0
  6 19  1  0
  8 20  1  0
 10 21  1  0
 11 22  1  0
M  END
>  <baseline_role>  (1) 
PDA atomistic reference fragment

>  <canonical_smiles>  (1) 
NCCc1ccc(O)c(O)c1

$$$$
