ODA
     RDKit          3D

 27 28  0  0  0  0  0  0  0  0999 V2000
   -5.1114    0.4407   -0.7634 N   0  0  0  0  0  0  0  0  0  0  0  0
   -3.7473    0.0120   -0.7824 C   0  0  0  0  0  0  0  0  0  0  0  0
   -3.2504   -0.7133   -1.8742 C   0  0  0  0  0  0  0  0  0  0  0  0
   -1.9168   -1.1329   -1.8921 C   0  0  0  0  0  0  0  0  0  0  0  0
   -1.0614   -0.8229   -0.8285 C   0  0  0  0  0  0  0  0  0  0  0  0
    0.2656   -1.2751   -0.8772 O   0  0  0  0  0  0  0  0  0  0  0  0
    1.3652   -0.6358   -0.2857 C   0  0  0  0  0  0  0  0  0  0  0  0
    1.4303    0.7631   -0.1527 C   0  0  0  0  0  0  0  0  0  0  0  0
    2.5514    1.3643    0.4275 C   0  0  0  0  0  0  0  0  0  0  0  0
    3.6243    0.5782    0.8700 C   0  0  0  0  0  0  0  0  0  0  0  0
    4.7710    1.1932    1.4631 N   0  0  0  0  0  0  0  0  0  0  0  0
    3.5686   -0.8143    0.7197 C   0  0  0  0  0  0  0  0  0  0  0  0
    2.4475   -1.4151    0.1391 C   0  0  0  0  0  0  0  0  0  0  0  0
   -1.5659   -0.1122    0.2758 C   0  0  0  0  0  0  0  0  0  0  0  0
   -2.8995    0.3072    0.2942 C   0  0  0  0  0  0  0  0  0  0  0  0
   -5.7513    0.2232   -1.5597 H   0  0  0  0  0  0  0  0  0  0  0  0
   -5.4912    0.9794    0.0468 H   0  0  0  0  0  0  0  0  0  0  0  0
   -3.8961   -0.9545   -2.7093 H   0  0  0  0  0  0  0  0  0  0  0  0
   -1.5439   -1.6945   -2.7392 H   0  0  0  0  0  0  0  0  0  0  0  0
    0.6257    1.3897   -0.5142 H   0  0  0  0  0  0  0  0  0  0  0  0
    2.5870    2.4420    0.5257 H   0  0  0  0  0  0  0  0  0  0  0  0
    4.8227    2.2301    1.5770 H   0  0  0  0  0  0  0  0  0  0  0  0
    5.5765    0.6160    1.7933 H   0  0  0  0  0  0  0  0  0  0  0  0
    4.3933   -1.4331    1.0505 H   0  0  0  0  0  0  0  0  0  0  0  0
    2.4157   -2.4914    0.0256 H   0  0  0  0  0  0  0  0  0  0  0  0
   -0.9360    0.1005    1.1295 H   0  0  0  0  0  0  0  0  0  0  0  0
   -3.2738    0.8554    1.1496 H   0  0  0  0  0  0  0  0  0  0  0  0
  1  2  1  0
  2  3  1  0
  3  4  2  0
  4  5  1  0
  5  6  1  0
  6  7  1  0
  7  8  1  0
  8  9  2  0
  9 10  1  0
 10 11  1  0
 10 12  2  0
 12 13  1  0
  5 14  2  0
 14 15  1  0
 15  2  2  0
 13  7  2  0
  1 16  1  0
  1 17  1  0
  3 18  1  0
  4 19  1  0
  8 20  1  0
  9 21  1  0
 11 22  1  0
 11 23  1  0
 12 24  1  0
 13 25  1  0
 14 26  1  0
 15 27  1  0
M  END
>  <baseline_role>  (1) 
primary diamine

>  <canonical_smiles>  (1) 
Nc1ccc(Oc2ccc(N)cc2)cc1

$$$$
