ODPA
     RDKit          3D

 29 32  0  0  0  0  0  0  0  0999 V2000
   -2.5949    3.1675    0.8508 O   0  0  0  0  0  0  0  0  0  0  0  0
   -3.1843    2.0740    1.0532 C   0  0  0  0  0  0  0  0  0  0  0  0
   -4.4223    1.9553    1.6828 O   0  0  0  0  0  0  0  0  0  0  0  0
   -4.7166    0.5929    1.7045 C   0  0  0  0  0  0  0  0  0  0  0  0
   -5.7660    0.1030    2.1977 O   0  0  0  0  0  0  0  0  0  0  0  0
   -3.6374   -0.1577    1.0746 C   0  0  0  0  0  0  0  0  0  0  0  0
   -3.4810   -1.5212    0.8419 C   0  0  0  0  0  0  0  0  0  0  0  0
   -2.3126   -1.9476    0.1855 C   0  0  0  0  0  0  0  0  0  0  0  0
   -1.3252   -1.0175   -0.2146 C   0  0  0  0  0  0  0  0  0  0  0  0
   -0.1864   -1.4941   -0.8801 O   0  0  0  0  0  0  0  0  0  0  0  0
    1.0855   -0.9045   -0.8373 C   0  0  0  0  0  0  0  0  0  0  0  0
    1.9380   -1.0556   -1.9556 C   0  0  0  0  0  0  0  0  0  0  0  0
    3.2291   -0.4981   -1.9584 C   0  0  0  0  0  0  0  0  0  0  0  0
    3.6422    0.1958   -0.8245 C   0  0  0  0  0  0  0  0  0  0  0  0
    4.8985    0.8654   -0.5111 C   0  0  0  0  0  0  0  0  0  0  0  0
    5.8976    0.9528   -1.2716 O   0  0  0  0  0  0  0  0  0  0  0  0
    4.8413    1.4040    0.7733 O   0  0  0  0  0  0  0  0  0  0  0  0
    3.5785    1.0861    1.2706 C   0  0  0  0  0  0  0  0  0  0  0  0
    3.1658    1.4103    2.4147 O   0  0  0  0  0  0  0  0  0  0  0  0
    2.8278    0.3329    0.2736 C   0  0  0  0  0  0  0  0  0  0  0  0
    1.5458   -0.2102    0.3071 C   0  0  0  0  0  0  0  0  0  0  0  0
   -1.5267    0.3639    0.0197 C   0  0  0  0  0  0  0  0  0  0  0  0
   -2.6921    0.7553    0.6741 C   0  0  0  0  0  0  0  0  0  0  0  0
   -4.2361   -2.2314    1.1528 H   0  0  0  0  0  0  0  0  0  0  0  0
   -2.1674   -3.0025   -0.0094 H   0  0  0  0  0  0  0  0  0  0  0  0
    1.5931   -1.6019   -2.8241 H   0  0  0  0  0  0  0  0  0  0  0  0
    3.8818   -0.6087   -2.8145 H   0  0  0  0  0  0  0  0  0  0  0  0
    0.9366   -0.1143    1.1960 H   0  0  0  0  0  0  0  0  0  0  0  0
   -0.8129    1.1060   -0.3125 H   0  0  0  0  0  0  0  0  0  0  0  0
  1  2  2  0
  2  3  1  0
  3  4  1  0
  4  5  2  0
  4  6  1  0
  6  7  1  0
  7  8  2  0
  8  9  1  0
  9 10  1  0
 10 11  1  0
 11 12  1  0
 12 13  2  0
 13 14  1  0
 14 15  1  0
 15 16  2  0
 15 17  1  0
 17 18  1  0
 18 19  2  0
 18 20  1  0
 20 21  1  0
  9 22  2  0
 22 23  1  0
 23  2  1  0
 23  6  2  0
 21 11  2  0
 20 14  2  0
  7 24  1  0
  8 25  1  0
 12 26  1  0
 13 27  1  0
 21 28  1  0
 22 29  1  0
M  END
>  <baseline_role>  (1) 
dianhydride

>  <canonical_smiles>  (1) 
O=C1OC(=O)c2cc(Oc3ccc4c(c3)C(=O)OC4=O)ccc21

$$$$
