PDBA
     RDKit          3D

 20 20  0  0  0  0  0  0  0  0999 V2000
    3.7587    1.1423   -0.3275 O   0  0  0  0  0  0  0  0  0  0  0  0
    2.9869   -0.0479    0.0256 B   0  0  0  0  0  0  0  0  0  0  0  0
    3.6911   -1.2827    0.3665 O   0  0  0  0  0  0  0  0  0  0  0  0
    1.4121    0.0049    0.0565 C   0  0  0  0  0  0  0  0  0  0  0  0
    0.7363    1.1926   -0.2633 C   0  0  0  0  0  0  0  0  0  0  0  0
   -0.6610    1.2392   -0.2367 C   0  0  0  0  0  0  0  0  0  0  0  0
   -1.4018    0.0986    0.1100 C   0  0  0  0  0  0  0  0  0  0  0  0
   -2.9766    0.1508    0.1389 B   0  0  0  0  0  0  0  0  0  0  0  0
   -3.6804    1.3902   -0.1861 O   0  0  0  0  0  0  0  0  0  0  0  0
   -3.7480   -1.0348    0.5079 O   0  0  0  0  0  0  0  0  0  0  0  0
   -0.7259   -1.0892    0.4296 C   0  0  0  0  0  0  0  0  0  0  0  0
    0.6713   -1.1357    0.4030 C   0  0  0  0  0  0  0  0  0  0  0  0
    3.8722    1.0854   -1.3098 H   0  0  0  0  0  0  0  0  0  0  0  0
    3.7929   -1.7597   -0.4956 H   0  0  0  0  0  0  0  0  0  0  0  0
    1.2845    2.0867   -0.5344 H   0  0  0  0  0  0  0  0  0  0  0  0
   -1.1584    2.1682   -0.4880 H   0  0  0  0  0  0  0  0  0  0  0  0
   -3.8346    1.3423   -1.1634 H   0  0  0  0  0  0  0  0  0  0  0  0
   -3.9139   -1.5029   -0.3492 H   0  0  0  0  0  0  0  0  0  0  0  0
   -1.2742   -1.9835    0.7001 H   0  0  0  0  0  0  0  0  0  0  0  0
    1.1688   -2.0649    0.6537 H   0  0  0  0  0  0  0  0  0  0  0  0
  1  2  1  0
  2  3  1  0
  2  4  1  0
  4  5  1  0
  5  6  2  0
  6  7  1  0
  7  8  1  0
  8  9  1  0
  8 10  1  0
  7 11  2  0
 11 12  1  0
 12  4  2  0
  1 13  1  0
  3 14  1  0
  5 15  1  0
  6 16  1  0
  9 17  1  0
 10 18  1  0
 11 19  1  0
 12 20  1  0
M  END
>  <baseline_role>  (1) 
dynamic bifunctional crosslinker

>  <canonical_smiles>  (1) 
OB(O)c1ccc(B(O)O)cc1

$$$$
