@<TRIPOS>MOLECULE
DAB
   38    39     1     0     0
SMALL
bcc


@<TRIPOS>ATOM
      1 N1          -3.2590     3.5190    -0.5950 nv         1 DAB      -0.822200
      2 C1          -3.1930     2.1020    -0.4120 ca         1 DAB       0.172600
      3 C2          -4.1590     1.4480     0.3620 ca         1 DAB      -0.242000
      4 C3          -4.1070     0.0590     0.5330 ca         1 DAB       0.172600
      5 N2          -5.0990    -0.6060     1.3210 nv         1 DAB      -0.822200
      6 C4          -3.0780    -0.6770    -0.0700 ca         1 DAB      -0.199500
      7 C5          -2.0920    -0.0330    -0.8390 ca         1 DAB      -0.067600
      8 C6          -1.0100    -0.8290    -1.4660 c          1 DAB       0.665700
      9 O1          -1.2220    -2.0400    -1.7480 o          1 DAB      -0.606100
     10 N3           0.2790    -0.2520    -1.7330 ns         1 DAB      -0.562900
     11 C7           1.3750    -1.0180    -2.3270 c3         1 DAB       0.089000
     12 C8           1.9770    -2.0020    -1.3160 c3         1 DAB      -0.062100
     13 C9           2.5070    -1.2870    -0.1010 ca         1 DAB      -0.085300
     14 C10          1.7070    -1.1440     1.0430 ca         1 DAB      -0.132000
     15 C11          2.1850    -0.4470     2.1560 ca         1 DAB      -0.130000
     16 C12          3.4640     0.1200     2.1390 ca         1 DAB       0.109100
     17 O2           3.9150     0.8090     3.2640 oh         1 DAB      -0.493100
     18 C13          4.2690    -0.0090     0.9940 ca         1 DAB       0.042100
     19 O3           5.5420     0.5590     0.9680 oh         1 DAB      -0.517100
     20 C14          3.7860    -0.7080    -0.1220 ca         1 DAB      -0.167000
     21 C15         -2.1650     1.3610    -1.0120 ca         1 DAB      -0.199500
     22 H1          -2.5440     4.0180    -1.1710 hn         1 DAB       0.393300
     23 H2          -4.0220     4.0800    -0.1550 hn         1 DAB       0.393300
     24 H3          -4.9540     2.0180     0.8270 ha         1 DAB       0.134000
     25 H4          -5.8700    -0.0680     1.7750 hn         1 DAB       0.393300
     26 H5          -5.0700    -1.6410     1.4560 hn         1 DAB       0.393300
     27 H6          -3.0400    -1.7500     0.0730 ha         1 DAB       0.145500
     28 H7           0.4780     0.7350    -1.4570 hn         1 DAB       0.316500
     29 H8           2.1680    -0.3180    -2.6720 h1         1 DAB       0.063200
     30 H9           1.0080    -1.5700    -3.2190 h1         1 DAB       0.063200
     31 H10          2.8020    -2.5620    -1.8080 hc         1 DAB       0.059200
     32 H11          1.2160    -2.7550    -1.0190 hc         1 DAB       0.059200
     33 H12          0.7100    -1.5670     1.0720 ha         1 DAB       0.141000
     34 H13          1.5600    -0.3450     3.0330 ha         1 DAB       0.156000
     35 H14          4.8320     1.2380     3.3000 ho         1 DAB       0.437000
     36 H15          6.1410     0.4800     0.1540 ho         1 DAB       0.429000
     37 H16          4.4050    -0.7980    -1.0070 ha         1 DAB       0.136000
     38 H17         -1.4440     1.8780    -1.6320 ha         1 DAB       0.145500
@<TRIPOS>BOND
     1     1     2 1   
     2     2     3 ar  
     3     3     4 ar  
     4     4     5 1   
     5     4     6 ar  
     6     6     7 ar  
     7     7     8 1   
     8     8     9 2   
     9     8    10 1   
    10    10    11 1   
    11    11    12 1   
    12    12    13 1   
    13    13    14 ar  
    14    14    15 ar  
    15    15    16 ar  
    16    16    17 1   
    17    16    18 ar  
    18    18    19 1   
    19    18    20 ar  
    20     7    21 ar  
    21    21     2 ar  
    22    20    13 ar  
    23     1    22 1   
    24     1    23 1   
    25     3    24 1   
    26     5    25 1   
    27     5    26 1   
    28     6    27 1   
    29    10    28 1   
    30    11    29 1   
    31    11    30 1   
    32    12    31 1   
    33    12    32 1   
    34    14    33 1   
    35    15    34 1   
    36    17    35 1   
    37    19    36 1   
    38    20    37 1   
    39    21    38 1   
@<TRIPOS>SUBSTRUCTURE
     1 DAB         1 TEMP              0 ****  ****    0 ROOT
